
     RDKit          2D

 30 34  0  0  0  0  0  0  0  0999 V2000
   -3.3333   12.8317    0.0000 C   0  0  0  0  0  0  0  0  0  0  0  0
   -4.6670   12.0617    0.0000 C   0  0  0  0  0  0  0  0  0  0  0  0
   -4.6670   10.5217    0.0000 C   0  0  0  0  0  0  0  0  0  0  0  0
   -3.3333    9.7516    0.0000 C   0  0  0  0  0  0  0  0  0  0  0  0
   -1.9997   10.5217    0.0000 C   0  0  0  0  0  0  0  0  0  0  0  0
   -1.9997   12.0617    0.0000 C   0  0  0  0  0  0  0  0  0  0  0  0
   -0.5351   10.0458    0.0000 N   0  0  0  0  0  0  0  0  0  0  0  0
    0.3701   11.2916    0.0000 C   0  0  0  0  0  0  0  0  0  0  0  0
   -0.5350   12.5375    0.0000 N   0  0  0  0  0  0  0  0  0  0  0  0
   -0.0591   14.0021    0.0000 C   0  0  0  0  0  0  0  0  0  0  0  0
   -0.0593    8.5811    0.0000 C   0  0  0  0  0  0  0  0  0  0  0  0
    1.9101   11.2916    0.0000 O   0  0  0  0  0  0  0  0  0  0  0  0
   -6.0007    9.7517    0.0000 R#  0  0  0  0  0  0  0  0  0  0  0  0
   -6.0007   12.8317    0.0000 N   0  0  0  0  0  0  0  0  0  0  0  0
   -7.3344   15.1417    0.0000 C   0  0  0  0  0  0  0  0  0  0  0  0
   -8.6680   14.3717    0.0000 C   0  0  0  0  0  0  0  0  0  0  0  0
   -8.6680   12.8317    0.0000 C   0  0  0  0  0  0  0  0  0  0  0  0
   -7.3344   12.0617    0.0000 C   0  0  0  0  0  0  0  0  0  0  0  0
   -6.0007   14.3717    0.0000 C   0  0  0  0  0  0  0  0  0  0  0  0
   -4.6670   15.1417    0.0000 O   0  0  0  0  0  0  0  0  0  0  0  0
   -7.3344   10.5217    0.0000 O   0  0  0  0  0  0  0  0  0  0  0  0
   -8.6680   17.4518    0.0000 C   0  0  0  0  0  0  0  0  0  0  0  0
  -10.0017   16.6818    0.0000 C   0  0  0  0  0  0  0  0  0  0  0  0
  -10.0017   15.1417    0.0000 C   0  0  0  0  0  0  0  0  0  0  0  0
   -7.3344   16.6818    0.0000 C   0  0  0  0  0  0  0  0  0  0  0  0
  -11.3354   14.3717    0.0000 C   0  0  0  0  0  0  0  0  0  0  0  0
  -11.3354   12.8317    0.0000 C   0  0  0  0  0  0  0  0  0  0  0  0
  -10.0017   12.0617    0.0000 C   0  0  0  0  0  0  0  0  0  0  0  0
  -12.6690   15.1417    0.0000 R#  0  0  0  0  0  0  0  0  0  0  0  0
  -12.6690   12.0617    0.0000 R#  0  0  0  0  0  0  0  0  0  0  0  0
  1  2  2  0
  2  3  1  0
  3  4  2  0
  4  5  1  0
  5  6  2  0
  1  6  1  0
  7  8  1  0
  8  9  1  0
  5  7  1  0
  6  9  1  0
  9 10  1  0
  7 11  1  0
  8 12  2  0
  3 13  1  0
  2 14  1  0
 16 17  1  0
 17 18  1  0
 15 19  1  0
 18 14  1  0
 14 19  1  0
 19 20  2  0
 18 21  2  0
 15 16  2  0
 22 23  1  0
 15 25  1  0
 24 16  1  0
 27 28  1  0
 24 26  1  0
 28 17  2  0
 26 27  2  0
 23 24  2  0
 22 25  2  0
 26 29  1  0
 27 30  1  0
M  RGP  3  13   3  29   1  30   2
V   13 *
V   29 *
V   30 *
M  END
>  <scaffold>  (1) 
1

$$$$
1
     RDKit          2D

 26 28  0  0  0  0  0  0  0  0999 V2000
    1.2623    3.4221    0.0000 C   0  0  0  0  0  0  0  0  0  0  0  0
    1.2615    2.4221    0.0000 O   0  0  0  0  0  0  0  0  0  0  0  0
    0.3951    1.9227    0.0000 C   0  0  0  0  0  0  0  0  0  0  0  0
   -0.4705    2.4235    0.0000 C   0  0  0  0  0  0  0  0  0  0  0  0
   -1.3369    1.9241    0.0000 C   0  0  0  0  0  0  0  0  0  0  0  0
   -2.2877    2.2339    0.0000 N   0  0  0  0  0  0  0  0  0  0  0  0
   -2.5959    3.1851    0.0000 C   0  0  0  0  0  0  0  0  0  0  0  0
   -2.8761    1.4253    0.0000 C   0  0  0  0  0  0  0  0  0  0  0  0
   -3.8761    1.4261    0.0000 O   0  0  0  0  0  0  0  0  0  0  0  0
   -2.2889    0.6159    0.0000 N   0  0  0  0  0  0  0  0  0  0  0  0
   -2.5987   -0.3349    0.0000 C   0  0  0  0  0  0  0  0  0  0  0  0
   -1.3377    0.9241    0.0000 C   0  0  0  0  0  0  0  0  0  0  0  0
   -0.4721    0.4235    0.0000 C   0  0  0  0  0  0  0  0  0  0  0  0
    0.3943    0.9227    0.0000 C   0  0  0  0  0  0  0  0  0  0  0  0
    1.2599    0.4221    0.0000 N   0  0  0  0  0  0  0  0  0  0  0  0
    1.2591   -0.5779    0.0000 S   0  0  0  0  0  0  0  0  0  0  0  0
    0.2591   -0.5771    0.0000 O   0  0  0  0  0  0  0  0  0  0  0  0
    2.2591   -0.5787    0.0000 O   0  0  0  0  0  0  0  0  0  0  0  0
    1.2583   -1.5779    0.0000 C   0  0  0  0  0  0  0  0  0  0  0  0
    0.3919   -2.0773    0.0000 C   0  0  0  0  0  0  0  0  0  0  0  0
    0.3911   -3.0773    0.0000 C   0  0  0  0  0  0  0  0  0  0  0  0
    1.2567   -3.5779    0.0000 C   0  0  0  0  0  0  0  0  0  0  0  0
    1.2559   -4.5779    0.0000 Br  0  0  0  0  0  0  0  0  0  0  0  0
    2.1231   -3.0785    0.0000 C   0  0  0  0  0  0  0  0  0  0  0  0
    2.1239   -2.0785    0.0000 C   0  0  0  0  0  0  0  0  0  0  0  0
    2.9903   -1.5793    0.0000 C   0  0  0  0  0  0  0  0  0  0  0  0
  1  2  1  0
  2  3  1  0
  3  4  2  0
  4  5  1  0
  5  6  1  0
  6  7  1  0
  6  8  1  0
  8  9  2  0
  8 10  1  0
 10 11  1  0
 10 12  1  0
 12 13  1  0
 13 14  2  0
 14 15  1  0
 15 16  1  0
 16 17  2  0
 16 18  2  0
 16 19  1  0
 19 20  2  0
 20 21  1  0
 21 22  2  0
 22 23  1  0
 22 24  1  0
 24 25  2  0
 25 26  1  0
 14  3  1  0
 12  5  2  0
 25 19  1  0
M  END
>  <Frequencies>  (2) 
0.0000000853

>  <SMILES 1 Canonical Smiles>  (2) 
0.000000892

>  <His-BRPF1 / H4Ac Peptide Interaction (HTRF) IC50 [mol/l] (mean)>  (2) 
0.00000649

>  <His-BRPF2 / H4Ac Peptide Interaction (HTRF) IC50 [mol/l] (mean)>  (2) 
0.0000165

>  <GST-TAF1 BD2 HTRF IC50 [mol/l] (mean)>  (2) 
0.0000092

>  <GST-TAF1L BD2 HTRF IC50 [mol/l] (mean)>  (2) 
>1.40E-5

$$$$
2
     RDKit          2D

 27 29  0  0  0  0  0  0  0  0999 V2000
   -1.2492    2.1307    0.0000 C   0  0  0  0  0  0  0  0  0  0  0  0
   -1.2500    1.1307    0.0000 O   0  0  0  0  0  0  0  0  0  0  0  0
   -2.1164    0.6313    0.0000 C   0  0  0  0  0  0  0  0  0  0  0  0
   -2.9820    1.1321    0.0000 C   0  0  0  0  0  0  0  0  0  0  0  0
   -3.8484    0.6327    0.0000 C   0  0  0  0  0  0  0  0  0  0  0  0
   -3.8492   -0.3673    0.0000 C   0  0  0  0  0  0  0  0  0  0  0  0
   -2.9836   -0.8679    0.0000 C   0  0  0  0  0  0  0  0  0  0  0  0
   -2.1172   -0.3687    0.0000 C   0  0  0  0  0  0  0  0  0  0  0  0
   -1.2516   -0.8693    0.0000 S   0  0  0  0  0  0  0  0  0  0  0  0
   -0.7510   -0.0037    0.0000 O   0  0  0  0  0  0  0  0  0  0  0  0
   -1.7524   -1.7349    0.0000 O   0  0  0  0  0  0  0  0  0  0  0  0
   -0.3860   -1.3701    0.0000 N   0  0  0  0  0  0  0  0  0  0  0  0
    0.4804   -0.8707    0.0000 C   0  0  0  0  0  0  0  0  0  0  0  0
    0.4812    0.1293    0.0000 C   0  0  0  0  0  0  0  0  0  0  0  0
    1.3476    0.6285    0.0000 C   0  0  0  0  0  0  0  0  0  0  0  0
    2.2132    0.1279    0.0000 C   0  0  0  0  0  0  0  0  0  0  0  0
    3.0796    0.6271    0.0000 N   0  0  0  0  0  0  0  0  0  0  0  0
    3.0804    1.6271    0.0000 C   0  0  0  0  0  0  0  0  0  0  0  0
    3.9452    0.1265    0.0000 C   0  0  0  0  0  0  0  0  0  0  0  0
    4.8116    0.6259    0.0000 O   0  0  0  0  0  0  0  0  0  0  0  0
    3.9444   -0.8735    0.0000 C   0  0  0  0  0  0  0  0  0  0  0  0
    3.0780   -1.3729    0.0000 C   0  0  0  0  0  0  0  0  0  0  0  0
    2.2124   -0.8721    0.0000 C   0  0  0  0  0  0  0  0  0  0  0  0
    1.3460   -1.3715    0.0000 C   0  0  0  0  0  0  0  0  0  0  0  0
    4.8100   -1.3741    0.0000 C   0  0  0  0  0  0  0  0  0  0  0  0
   -4.7140    1.1333    0.0000 C   0  0  0  0  0  0  0  0  0  0  0  0
   -5.5796    1.6341    0.0000 N   0  0  0  0  0  0  0  0  0  0  0  0
  1  2  1  0
  2  3  1  0
  3  4  2  0
  4  5  1  0
  5  6  2  0
  6  7  1  0
  7  8  2  0
  8  9  1  0
  9 10  2  0
  9 11  2  0
  9 12  1  0
 12 13  1  0
 13 14  2  0
 14 15  1  0
 15 16  2  0
 16 17  1  0
 17 18  1  0
 17 19  1  0
 19 20  2  0
 19 21  1  0
 21 22  2  0
 22 23  1  0
 23 24  2  0
 21 25  1  0
  5 26  1  0
 26 27  3  0
  8  3  1  0
 24 13  1  0
 23 16  1  0
M  END
>  <Frequencies>  (3) 
0.0000000249

>  <SMILES 1 Canonical Smiles>  (3) 
0.000000139

>  <His-BRPF1 / H4Ac Peptide Interaction (HTRF) IC50 [mol/l] (mean)>  (3) 
>2.00E-5

>  <His-BRPF2 / H4Ac Peptide Interaction (HTRF) IC50 [mol/l] (mean)>  (3) 
>2.00E-5

>  <GST-TAF1 BD2 HTRF IC50 [mol/l] (mean)>  (3) 
0.00000662

>  <GST-TAF1L BD2 HTRF IC50 [mol/l] (mean)>  (3) 
>2.00E-5

$$$$
3
     RDKit          2D

 28 31  0  0  0  0  0  0  0  0999 V2000
    0.7629    4.0931    0.0000 C   0  0  0  0  0  0  0  0  0  0  0  0
    0.7621    3.0931    0.0000 O   0  0  0  0  0  0  0  0  0  0  0  0
    1.6277    2.5925    0.0000 C   0  0  0  0  0  0  0  0  0  0  0  0
    2.4941    3.0919    0.0000 C   0  0  0  0  0  0  0  0  0  0  0  0
    3.3597    2.5911    0.0000 C   0  0  0  0  0  0  0  0  0  0  0  0
    3.3589    1.5911    0.0000 C   0  0  0  0  0  0  0  0  0  0  0  0
    2.4925    1.0917    0.0000 C   0  0  0  0  0  0  0  0  0  0  0  0
    1.6269    1.5925    0.0000 C   0  0  0  0  0  0  0  0  0  0  0  0
    0.7605    1.0931    0.0000 C   0  0  0  0  0  0  0  0  0  0  0  0
   -0.1051    1.5939    0.0000 O   0  0  0  0  0  0  0  0  0  0  0  0
    0.7597    0.0931    0.0000 N   0  0  0  0  0  0  0  0  0  0  0  0
   -0.1067   -0.4061    0.0000 C   0  0  0  0  0  0  0  0  0  0  0  0
   -0.9723    0.0945    0.0000 C   0  0  0  0  0  0  0  0  0  0  0  0
   -1.8387   -0.4047    0.0000 C   0  0  0  0  0  0  0  0  0  0  0  0
   -2.7895   -0.0951    0.0000 N   0  0  0  0  0  0  0  0  0  0  0  0
   -3.0977    0.8563    0.0000 C   0  0  0  0  0  0  0  0  0  0  0  0
   -3.3781   -0.9035    0.0000 C   0  0  0  0  0  0  0  0  0  0  0  0
   -4.3779   -0.9027    0.0000 O   0  0  0  0  0  0  0  0  0  0  0  0
   -2.7909   -1.7129    0.0000 N   0  0  0  0  0  0  0  0  0  0  0  0
   -3.1005   -2.6637    0.0000 C   0  0  0  0  0  0  0  0  0  0  0  0
   -1.8395   -1.4047    0.0000 C   0  0  0  0  0  0  0  0  0  0  0  0
   -0.9739   -1.9055    0.0000 C   0  0  0  0  0  0  0  0  0  0  0  0
   -0.1075   -1.4061    0.0000 C   0  0  0  0  0  0  0  0  0  0  0  0
    0.7583   -1.9069    0.0000 N   0  0  0  0  0  0  0  0  0  0  0  0
    1.6719   -1.5007    0.0000 C   0  0  0  0  0  0  0  0  0  0  0  0
    2.3403   -2.2445    0.0000 C   0  0  0  0  0  0  0  0  0  0  0  0
    1.8399   -3.1103    0.0000 C   0  0  0  0  0  0  0  0  0  0  0  0
    0.8617   -2.9015    0.0000 C   0  0  0  0  0  0  0  0  0  0  0  0
  1  2  1  0
  2  3  1  0
  3  4  2  0
  4  5  1  0
  5  6  2  0
  6  7  1  0
  7  8  2  0
  8  9  1  0
  9 10  2  0
  9 11  1  0
 11 12  1  0
 12 13  2  0
 13 14  1  0
 14 15  1  0
 15 16  1  0
 15 17  1  0
 17 18  2  0
 17 19  1  0
 19 20  1  0
 19 21  1  0
 21 22  1  0
 22 23  2  0
 23 24  1  0
 24 25  1  0
 25 26  1  0
 26 27  1  0
 27 28  1  0
  8  3  1  0
 23 12  1  0
 21 14  2  0
 28 24  1  0
M  END
>  <Frequencies>  (4) 
0.0000000405

>  <SMILES 1 Canonical Smiles>  (4) 
0.00000111

>  <His-BRPF1 / H4Ac Peptide Interaction (HTRF) IC50 [mol/l] (mean)>  (4) 
0.00000952

>  <His-BRPF2 / H4Ac Peptide Interaction (HTRF) IC50 [mol/l] (mean)>  (4) 
>1.44E-5

>  <GST-TAF1 BD2 HTRF IC50 [mol/l] (mean)>  (4) 
0.0000104

>  <GST-TAF1L BD2 HTRF IC50 [mol/l] (mean)>  (4) 
>2.00E-5

$$$$
4
     RDKit          2D

 36 39  0  0  0  0  0  0  0  0999 V2000
    4.0421    6.5231    0.0000 C   0  0  0  0  0  0  0  0  0  0  0  0
    3.1757    6.0239    0.0000 C   0  0  0  0  0  0  0  0  0  0  0  0
    2.3101    6.5245    0.0000 C   0  0  0  0  0  0  0  0  0  0  0  0
    3.1749    5.0239    0.0000 C   0  0  0  0  0  0  0  0  0  0  0  0
    2.3085    4.5245    0.0000 O   0  0  0  0  0  0  0  0  0  0  0  0
    2.3077    3.5245    0.0000 C   0  0  0  0  0  0  0  0  0  0  0  0
    1.4413    3.0251    0.0000 C   0  0  0  0  0  0  0  0  0  0  0  0
    0.5757    3.5259    0.0000 C   0  0  0  0  0  0  0  0  0  0  0  0
   -0.2907    3.0265    0.0000 C   0  0  0  0  0  0  0  0  0  0  0  0
   -0.2915    2.0265    0.0000 C   0  0  0  0  0  0  0  0  0  0  0  0
    0.5741    1.5259    0.0000 C   0  0  0  0  0  0  0  0  0  0  0  0
    0.5733    0.5259    0.0000 O   0  0  0  0  0  0  0  0  0  0  0  0
   -0.2931    0.0265    0.0000 C   0  0  0  0  0  0  0  0  0  0  0  0
   -1.1587    0.5273    0.0000 C   0  0  0  0  0  0  0  0  0  0  0  0
   -2.0251    0.0279    0.0000 C   0  0  0  0  0  0  0  0  0  0  0  0
   -2.9759    0.3377    0.0000 N   0  0  0  0  0  0  0  0  0  0  0  0
   -3.2841    1.2889    0.0000 C   0  0  0  0  0  0  0  0  0  0  0  0
   -3.5645   -0.4709    0.0000 C   0  0  0  0  0  0  0  0  0  0  0  0
   -4.5643   -0.4701    0.0000 O   0  0  0  0  0  0  0  0  0  0  0  0
   -2.9771   -1.2803    0.0000 N   0  0  0  0  0  0  0  0  0  0  0  0
   -3.2869   -2.2311    0.0000 C   0  0  0  0  0  0  0  0  0  0  0  0
   -2.0259   -0.9721    0.0000 C   0  0  0  0  0  0  0  0  0  0  0  0
   -1.1603   -1.4727    0.0000 C   0  0  0  0  0  0  0  0  0  0  0  0
   -0.2939   -0.9735    0.0000 C   0  0  0  0  0  0  0  0  0  0  0  0
    0.5717   -1.4741    0.0000 N   0  0  0  0  0  0  0  0  0  0  0  0
    0.5709   -2.4741    0.0000 S   0  0  0  0  0  0  0  0  0  0  0  0
   -0.4291   -2.4733    0.0000 O   0  0  0  0  0  0  0  0  0  0  0  0
    1.5709   -2.4749    0.0000 O   0  0  0  0  0  0  0  0  0  0  0  0
    0.5701   -3.4741    0.0000 C   0  0  0  0  0  0  0  0  0  0  0  0
   -0.2393   -4.0613    0.0000 C   0  0  0  0  0  0  0  0  0  0  0  0
    0.0687   -5.0125    0.0000 N   0  0  0  0  0  0  0  0  0  0  0  0
   -0.5197   -5.8211    0.0000 C   0  0  0  0  0  0  0  0  0  0  0  0
    1.0689   -5.0133    0.0000 C   0  0  0  0  0  0  0  0  0  0  0  0
    1.6559   -5.8227    0.0000 C   0  0  0  0  0  0  0  0  0  0  0  0
    1.3785   -4.0625    0.0000 N   0  0  0  0  0  0  0  0  0  0  0  0
    1.4405    2.0253    0.0000 C   0  0  0  0  0  0  0  0  0  0  0  0
  1  2  1  0
  2  3  1  0
  2  4  1  0
  4  5  1  0
  5  6  1  0
  6  7  1  0
  7  8  2  0
  8  9  1  0
  9 10  2  0
 10 11  1  0
 11 12  1  0
 12 13  1  0
 13 14  2  0
 14 15  1  0
 15 16  1  0
 16 17  1  0
 16 18  1  0
 18 19  2  0
 18 20  1  0
 20 21  1  0
 20 22  1  0
 22 23  1  0
 23 24  2  0
 24 25  1  0
 25 26  1  0
 26 27  2  0
 26 28  2  0
 26 29  1  0
 29 30  2  0
 30 31  1  0
 31 32  1  0
 31 33  1  0
 33 34  1  0
 33 35  2  0
 11 36  2  0
 36  7  1  0
 24 13  1  0
 22 15  2  0
 35 29  1  0
M  END
>  <Frequencies>  (5) 
0.000000323

>  <SMILES 1 Canonical Smiles>  (5) 
0.000000696

>  <His-BRPF1 / H4Ac Peptide Interaction (HTRF) IC50 [mol/l] (mean)>  (5) 
>2.00E-5

>  <His-BRPF2 / H4Ac Peptide Interaction (HTRF) IC50 [mol/l] (mean)>  (5) 
>2.00E-5

>  <GST-TAF1 BD2 HTRF IC50 [mol/l] (mean)>  (5) 
>1.71E-5

>  <GST-TAF1L BD2 HTRF IC50 [mol/l] (mean)>  (5) 
>2.00E-5

$$$$
5
     RDKit          2D

 32 36  0  0  0  0  0  0  0  0999 V2000
    0.8660    5.0729    0.0000 C   0  0  0  0  0  0  0  0  0  0  0  0
    0.1982    4.3167    0.0000 N   0  0  0  0  0  0  0  0  0  0  0  0
   -0.8008    4.4355    0.0000 C   0  0  0  0  0  0  0  0  0  0  0  0
   -1.2996    5.2905    0.0000 O   0  0  0  0  0  0  0  0  0  0  0  0
   -1.1876    3.5119    0.0000 N   0  0  0  0  0  0  0  0  0  0  0  0
   -2.1746    3.2971    0.0000 C   0  0  0  0  0  0  0  0  0  0  0  0
   -0.4504    2.8385    0.0000 C   0  0  0  0  0  0  0  0  0  0  0  0
   -0.4628    1.8211    0.0000 C   0  0  0  0  0  0  0  0  0  0  0  0
    0.3898    1.3465    0.0000 C   0  0  0  0  0  0  0  0  0  0  0  0
    0.3664    0.3371    0.0000 N   0  0  0  0  0  0  0  0  0  0  0  0
    1.2478   -0.1629    0.0000 C   0  0  0  0  0  0  0  0  0  0  0  0
    2.1068    0.3289    0.0000 O   0  0  0  0  0  0  0  0  0  0  0  0
    1.2372   -1.1531    0.0000 C   0  0  0  0  0  0  0  0  0  0  0  0
    2.0898   -1.6595    0.0000 C   0  0  0  0  0  0  0  0  0  0  0  0
    2.0922   -2.6683    0.0000 C   0  0  0  0  0  0  0  0  0  0  0  0
    1.2100   -3.1591    0.0000 C   0  0  0  0  0  0  0  0  0  0  0  0
    0.3508   -2.6621    0.0000 C   0  0  0  0  0  0  0  0  0  0  0  0
   -0.5040   -3.1511    0.0000 C   0  0  0  0  0  0  0  0  0  0  0  0
   -0.5150   -4.1415    0.0000 C   0  0  0  0  0  0  0  0  0  0  0  0
   -1.3864   -4.6331    0.0000 C   0  0  0  0  0  0  0  0  0  0  0  0
   -1.3958   -5.6335    0.0000 C   0  0  0  0  0  0  0  0  0  0  0  0
   -2.2664   -6.1259    0.0000 O   0  0  0  0  0  0  0  0  0  0  0  0
   -1.3750   -2.6211    0.0000 C   0  0  0  0  0  0  0  0  0  0  0  0
   -1.3820   -1.6339    0.0000 C   0  0  0  0  0  0  0  0  0  0  0  0
   -0.5000   -1.1557    0.0000 C   0  0  0  0  0  0  0  0  0  0  0  0
   -0.5046   -0.1419    0.0000 C   0  0  0  0  0  0  0  0  0  0  0  0
   -1.3604    0.3557    0.0000 O   0  0  0  0  0  0  0  0  0  0  0  0
    0.3746   -1.6613    0.0000 C   0  0  0  0  0  0  0  0  0  0  0  0
    1.2608    1.8373    0.0000 C   0  0  0  0  0  0  0  0  0  0  0  0
    2.1194    1.3447    0.0000 C   0  0  0  0  0  0  0  0  0  0  0  0
    1.2454    2.8639    0.0000 C   0  0  0  0  0  0  0  0  0  0  0  0
    0.4114    3.3659    0.0000 C   0  0  0  0  0  0  0  0  0  0  0  0
  1  2  1  0
  2  3  1  0
  3  4  2  0
  3  5  1  0
  5  6  1  0
  5  7  1  0
  7  8  2  0
  8  9  1  0
  9 10  1  0
 10 11  1  0
 11 12  2  0
 11 13  1  0
 13 14  2  0
 14 15  1  0
 15 16  2  0
 16 17  1  0
 17 18  2  0
 18 19  1  0
 19 20  1  0
 20 21  1  0
 21 22  1  0
 18 23  1  0
 23 24  2  0
 24 25  1  0
 25 26  1  0
 26 27  2  0
 25 28  2  0
  9 29  2  0
 29 30  1  0
 29 31  1  0
 31 32  2  0
 32  2  1  0
 32  7  1  0
 26 10  1  0
 28 13  1  0
 28 17  1  0
M  END
>  <Frequencies>  (6) 
0.00000315

>  <SMILES 1 Canonical Smiles>  (6) 
0.0000000673

>  <His-BRPF1 / H4Ac Peptide Interaction (HTRF) IC50 [mol/l] (mean)>  (6) 
0.00000000795

>  <His-BRPF2 / H4Ac Peptide Interaction (HTRF) IC50 [mol/l] (mean)>  (6) 
0.000000106

>  <GST-TAF1 BD2 HTRF IC50 [mol/l] (mean)>  (6) 
>1.57E-5

>  <GST-TAF1L BD2 HTRF IC50 [mol/l] (mean)>  (6) 
>2.00E-5

$$$$
6
     RDKit          2D

 27 31  0  0  0  0  0  0  0  0999 V2000
    0.7061    4.3573    0.0000 C   0  0  0  0  0  0  0  0  0  0  0  0
    0.0383    3.6129    0.0000 N   0  0  0  0  0  0  0  0  0  0  0  0
   -0.9563    3.7155    0.0000 C   0  0  0  0  0  0  0  0  0  0  0  0
   -1.4579    4.5805    0.0000 O   0  0  0  0  0  0  0  0  0  0  0  0
   -1.3613    2.8011    0.0000 N   0  0  0  0  0  0  0  0  0  0  0  0
   -2.3389    2.5913    0.0000 C   0  0  0  0  0  0  0  0  0  0  0  0
   -0.6167    2.1335    0.0000 C   0  0  0  0  0  0  0  0  0  0  0  0
   -0.6147    1.1335    0.0000 C   0  0  0  0  0  0  0  0  0  0  0  0
    0.2523    0.6353    0.0000 C   0  0  0  0  0  0  0  0  0  0  0  0
    1.1173    1.1371    0.0000 C   0  0  0  0  0  0  0  0  0  0  0  0
    1.1153    2.1369    0.0000 C   0  0  0  0  0  0  0  0  0  0  0  0
    0.2483    2.6353    0.0000 C   0  0  0  0  0  0  0  0  0  0  0  0
    0.2543   -0.3647    0.0000 N   0  0  0  0  0  0  0  0  0  0  0  0
    1.1213   -0.8629    0.0000 C   0  0  0  0  0  0  0  0  0  0  0  0
    1.9863   -0.3613    0.0000 O   0  0  0  0  0  0  0  0  0  0  0  0
    1.1233   -1.8629    0.0000 C   0  0  0  0  0  0  0  0  0  0  0  0
    1.9903   -2.3611    0.0000 C   0  0  0  0  0  0  0  0  0  0  0  0
    1.9925   -3.3611    0.0000 C   0  0  0  0  0  0  0  0  0  0  0  0
    1.1275   -3.8629    0.0000 C   0  0  0  0  0  0  0  0  0  0  0  0
    0.2603   -3.3645    0.0000 C   0  0  0  0  0  0  0  0  0  0  0  0
   -0.6047   -3.8663    0.0000 C   0  0  0  0  0  0  0  0  0  0  0  0
   -1.4717   -3.3681    0.0000 C   0  0  0  0  0  0  0  0  0  0  0  0
   -1.4737   -2.3681    0.0000 C   0  0  0  0  0  0  0  0  0  0  0  0
   -0.6087   -1.8663    0.0000 C   0  0  0  0  0  0  0  0  0  0  0  0
   -0.6107   -0.8663    0.0000 C   0  0  0  0  0  0  0  0  0  0  0  0
   -1.4777   -0.3681    0.0000 O   0  0  0  0  0  0  0  0  0  0  0  0
    0.2583   -2.3647    0.0000 C   0  0  0  0  0  0  0  0  0  0  0  0
  1  2  1  0
  2  3  1  0
  3  4  2  0
  3  5  1  0
  5  6  1  0
  5  7  1  0
  7  8  2  0
  8  9  1  0
  9 10  2  0
 10 11  1  0
 11 12  2  0
  9 13  1  0
 13 14  1  0
 14 15  2  0
 14 16  1  0
 16 17  2  0
 17 18  1  0
 18 19  2  0
 19 20  1  0
 20 21  2  0
 21 22  1  0
 22 23  2  0
 23 24  1  0
 24 25  1  0
 25 26  2  0
 24 27  2  0
 12  2  1  0
 12  7  1  0
 25 13  1  0
 27 16  1  0
 27 20  1  0
M  END
>  <Frequencies>  (7) 
>1.450E-5

>  <SMILES 1 Canonical Smiles>  (7) 
0.00000045

>  <His-BRPF1 / H4Ac Peptide Interaction (HTRF) IC50 [mol/l] (mean)>  (7) 


>  <His-BRPF2 / H4Ac Peptide Interaction (HTRF) IC50 [mol/l] (mean)>  (7) 


>  <GST-TAF1 BD2 HTRF IC50 [mol/l] (mean)>  (7) 
>1.40E-5

>  <GST-TAF1L BD2 HTRF IC50 [mol/l] (mean)>  (7) 
>2.00E-5

$$$$
7
     RDKit          2D

 28 32  0  0  0  0  0  0  0  0999 V2000
    0.6352    4.3346    0.0000 C   0  0  0  0  0  0  0  0  0  0  0  0
   -0.0326    3.5900    0.0000 N   0  0  0  0  0  0  0  0  0  0  0  0
   -1.0272    3.6926    0.0000 C   0  0  0  0  0  0  0  0  0  0  0  0
   -1.5288    4.5576    0.0000 O   0  0  0  0  0  0  0  0  0  0  0  0
   -1.4322    2.7784    0.0000 N   0  0  0  0  0  0  0  0  0  0  0  0
   -2.4098    2.5684    0.0000 C   0  0  0  0  0  0  0  0  0  0  0  0
   -0.6876    2.1108    0.0000 C   0  0  0  0  0  0  0  0  0  0  0  0
   -0.6856    1.1108    0.0000 C   0  0  0  0  0  0  0  0  0  0  0  0
    0.1814    0.6126    0.0000 C   0  0  0  0  0  0  0  0  0  0  0  0
    0.1834   -0.3874    0.0000 N   0  0  0  0  0  0  0  0  0  0  0  0
    1.0506   -0.8858    0.0000 C   0  0  0  0  0  0  0  0  0  0  0  0
    1.9156   -0.3840    0.0000 O   0  0  0  0  0  0  0  0  0  0  0  0
    1.0526   -1.8858    0.0000 C   0  0  0  0  0  0  0  0  0  0  0  0
    1.9196   -2.3840    0.0000 C   0  0  0  0  0  0  0  0  0  0  0  0
    1.9216   -3.3840    0.0000 C   0  0  0  0  0  0  0  0  0  0  0  0
    1.0566   -3.8856    0.0000 C   0  0  0  0  0  0  0  0  0  0  0  0
    0.1896   -3.3874    0.0000 C   0  0  0  0  0  0  0  0  0  0  0  0
   -0.6754   -3.8892    0.0000 C   0  0  0  0  0  0  0  0  0  0  0  0
   -1.5426   -3.3908    0.0000 C   0  0  0  0  0  0  0  0  0  0  0  0
   -1.5446   -2.3908    0.0000 C   0  0  0  0  0  0  0  0  0  0  0  0
   -0.6796   -1.8892    0.0000 C   0  0  0  0  0  0  0  0  0  0  0  0
   -0.6816   -0.8892    0.0000 C   0  0  0  0  0  0  0  0  0  0  0  0
   -1.5486   -0.3910    0.0000 O   0  0  0  0  0  0  0  0  0  0  0  0
    0.1876   -2.3874    0.0000 C   0  0  0  0  0  0  0  0  0  0  0  0
    1.0464    1.1142    0.0000 C   0  0  0  0  0  0  0  0  0  0  0  0
    1.9134    0.6160    0.0000 C   0  0  0  0  0  0  0  0  0  0  0  0
    1.0444    2.1142    0.0000 C   0  0  0  0  0  0  0  0  0  0  0  0
    0.1774    2.6124    0.0000 C   0  0  0  0  0  0  0  0  0  0  0  0
  1  2  1  0
  2  3  1  0
  3  4  2  0
  3  5  1  0
  5  6  1  0
  5  7  1  0
  7  8  2  0
  8  9  1  0
  9 10  1  0
 10 11  1  0
 11 12  2  0
 11 13  1  0
 13 14  2  0
 14 15  1  0
 15 16  2  0
 16 17  1  0
 17 18  2  0
 18 19  1  0
 19 20  2  0
 20 21  1  0
 21 22  1  0
 22 23  2  0
 21 24  2  0
  9 25  2  0
 25 26  1  0
 25 27  1  0
 27 28  2  0
 28  2  1  0
 28  7  1  0
 22 10  1  0
 24 13  1  0
 24 17  1  0
M  END
>  <Frequencies>  (8) 
0.00000155

>  <SMILES 1 Canonical Smiles>  (8) 
0.0000000943

>  <His-BRPF1 / H4Ac Peptide Interaction (HTRF) IC50 [mol/l] (mean)>  (8) 
0.0000000603

>  <His-BRPF2 / H4Ac Peptide Interaction (HTRF) IC50 [mol/l] (mean)>  (8) 
0.000000374

>  <GST-TAF1 BD2 HTRF IC50 [mol/l] (mean)>  (8) 
0.0000167

>  <GST-TAF1L BD2 HTRF IC50 [mol/l] (mean)>  (8) 
>2.00E-5

$$$$
8
     RDKit          2D

 29 33  0  0  0  0  0  0  0  0999 V2000
   -2.6871    1.0683    0.0000 C   0  0  0  0  0  0  0  0  0  0  0  0
   -1.8199    0.5701    0.0000 O   0  0  0  0  0  0  0  0  0  0  0  0
   -0.9549    1.0717    0.0000 C   0  0  0  0  0  0  0  0  0  0  0  0
   -0.9569    2.0717    0.0000 C   0  0  0  0  0  0  0  0  0  0  0  0
   -0.0919    2.5735    0.0000 C   0  0  0  0  0  0  0  0  0  0  0  0
    0.1139    3.5519    0.0000 N   0  0  0  0  0  0  0  0  0  0  0  0
   -0.5567    4.2937    0.0000 C   0  0  0  0  0  0  0  0  0  0  0  0
    1.1083    3.6585    0.0000 C   0  0  0  0  0  0  0  0  0  0  0  0
    1.6065    4.5255    0.0000 O   0  0  0  0  0  0  0  0  0  0  0  0
    1.5167    2.7459    0.0000 N   0  0  0  0  0  0  0  0  0  0  0  0
    2.4953    2.5399    0.0000 C   0  0  0  0  0  0  0  0  0  0  0  0
    0.7751    2.0753    0.0000 C   0  0  0  0  0  0  0  0  0  0  0  0
    0.7771    1.0753    0.0000 C   0  0  0  0  0  0  0  0  0  0  0  0
   -0.0879    0.5735    0.0000 C   0  0  0  0  0  0  0  0  0  0  0  0
   -0.0859   -0.4265    0.0000 N   0  0  0  0  0  0  0  0  0  0  0  0
    0.7811   -0.9247    0.0000 C   0  0  0  0  0  0  0  0  0  0  0  0
    1.6461   -0.4229    0.0000 O   0  0  0  0  0  0  0  0  0  0  0  0
    0.7831   -1.9247    0.0000 C   0  0  0  0  0  0  0  0  0  0  0  0
    1.6501   -2.4229    0.0000 C   0  0  0  0  0  0  0  0  0  0  0  0
    1.6521   -3.4229    0.0000 C   0  0  0  0  0  0  0  0  0  0  0  0
    0.7871   -3.9247    0.0000 C   0  0  0  0  0  0  0  0  0  0  0  0
   -0.0799   -3.4263    0.0000 C   0  0  0  0  0  0  0  0  0  0  0  0
   -0.9449   -3.9281    0.0000 C   0  0  0  0  0  0  0  0  0  0  0  0
   -1.8119   -3.4299    0.0000 C   0  0  0  0  0  0  0  0  0  0  0  0
   -1.8139   -2.4299    0.0000 C   0  0  0  0  0  0  0  0  0  0  0  0
   -0.9489   -1.9281    0.0000 C   0  0  0  0  0  0  0  0  0  0  0  0
   -0.9509   -0.9281    0.0000 C   0  0  0  0  0  0  0  0  0  0  0  0
   -1.8179   -0.4299    0.0000 O   0  0  0  0  0  0  0  0  0  0  0  0
   -0.0819   -2.4263    0.0000 C   0  0  0  0  0  0  0  0  0  0  0  0
  1  2  1  0
  2  3  1  0
  3  4  2  0
  4  5  1  0
  5  6  1  0
  6  7  1  0
  6  8  1  0
  8  9  2  0
  8 10  1  0
 10 11  1  0
 10 12  1  0
 12 13  1  0
 13 14  2  0
 14 15  1  0
 15 16  1  0
 16 17  2  0
 16 18  1  0
 18 19  2  0
 19 20  1  0
 20 21  2  0
 21 22  1  0
 22 23  2  0
 23 24  1  0
 24 25  2  0
 25 26  1  0
 26 27  1  0
 27 28  2  0
 26 29  2  0
 14  3  1  0
 12  5  2  0
 27 15  1  0
 29 18  1  0
 29 22  1  0
M  END
>  <Frequencies>  (9) 
0.00000115

>  <SMILES 1 Canonical Smiles>  (9) 
0.000000115

>  <His-BRPF1 / H4Ac Peptide Interaction (HTRF) IC50 [mol/l] (mean)>  (9) 


>  <His-BRPF2 / H4Ac Peptide Interaction (HTRF) IC50 [mol/l] (mean)>  (9) 


>  <GST-TAF1 BD2 HTRF IC50 [mol/l] (mean)>  (9) 
>1.08E-5

>  <GST-TAF1L BD2 HTRF IC50 [mol/l] (mean)>  (9) 
>2.00E-5

$$$$
9
     RDKit          2D

 30 34  0  0  0  0  0  0  0  0999 V2000
   -2.8161    1.4616    0.0000 C   0  0  0  0  0  0  0  0  0  0  0  0
   -2.0517    0.8140    0.0000 N   0  0  0  0  0  0  0  0  0  0  0  0
   -2.2733   -0.1610    0.0000 C   0  0  0  0  0  0  0  0  0  0  0  0
   -1.0055    1.2432    0.0000 C   0  0  0  0  0  0  0  0  0  0  0  0
   -1.0235    2.3210    0.0000 C   0  0  0  0  0  0  0  0  0  0  0  0
   -0.0441    2.8626    0.0000 C   0  0  0  0  0  0  0  0  0  0  0  0
    0.1607    3.8560    0.0000 N   0  0  0  0  0  0  0  0  0  0  0  0
   -0.5057    4.5894    0.0000 C   0  0  0  0  0  0  0  0  0  0  0  0
    1.1969    3.9464    0.0000 C   0  0  0  0  0  0  0  0  0  0  0  0
    1.6983    4.8232    0.0000 O   0  0  0  0  0  0  0  0  0  0  0  0
    1.6457    3.0042    0.0000 N   0  0  0  0  0  0  0  0  0  0  0  0
    2.6157    2.8068    0.0000 C   0  0  0  0  0  0  0  0  0  0  0  0
    0.9073    2.3436    0.0000 C   0  0  0  0  0  0  0  0  0  0  0  0
    0.9035    1.2422    0.0000 C   0  0  0  0  0  0  0  0  0  0  0  0
   -0.0419    0.6734    0.0000 C   0  0  0  0  0  0  0  0  0  0  0  0
    0.0155   -0.5188    0.0000 N   0  0  0  0  0  0  0  0  0  0  0  0
    0.9109   -1.0554    0.0000 C   0  0  0  0  0  0  0  0  0  0  0  0
    1.7835   -0.5466    0.0000 O   0  0  0  0  0  0  0  0  0  0  0  0
    0.9329   -2.1772    0.0000 C   0  0  0  0  0  0  0  0  0  0  0  0
    1.8255   -2.6626    0.0000 C   0  0  0  0  0  0  0  0  0  0  0  0
    1.8253   -3.6822    0.0000 C   0  0  0  0  0  0  0  0  0  0  0  0
    0.9447   -4.2264    0.0000 C   0  0  0  0  0  0  0  0  0  0  0  0
    0.0531   -3.7246    0.0000 C   0  0  0  0  0  0  0  0  0  0  0  0
   -0.8171   -4.2754    0.0000 C   0  0  0  0  0  0  0  0  0  0  0  0
   -1.7255   -3.7328    0.0000 C   0  0  0  0  0  0  0  0  0  0  0  0
   -1.7637   -2.6694    0.0000 C   0  0  0  0  0  0  0  0  0  0  0  0
   -0.8915   -2.1782    0.0000 C   0  0  0  0  0  0  0  0  0  0  0  0
   -0.8793   -1.0742    0.0000 C   0  0  0  0  0  0  0  0  0  0  0  0
   -1.6209   -0.6134    0.0000 O   0  0  0  0  0  0  0  0  0  0  0  0
    0.0417   -2.6906    0.0000 C   0  0  0  0  0  0  0  0  0  0  0  0
  1  2  1  0
  2  3  1  0
  2  4  1  0
  4  5  2  0
  5  6  1  0
  6  7  1  0
  7  8  1  0
  7  9  1  0
  9 10  2  0
  9 11  1  0
 11 12  1  0
 11 13  1  0
 13 14  1  0
 14 15  2  0
 15 16  1  0
 16 17  1  0
 17 18  2  0
 17 19  1  0
 19 20  2  0
 20 21  1  0
 21 22  2  0
 22 23  1  0
 23 24  2  0
 24 25  1  0
 25 26  2  0
 26 27  1  0
 27 28  1  0
 28 29  2  0
 27 30  2  0
 15  4  1  0
 13  6  2  0
 28 16  1  0
 30 19  1  0
 30 23  1  0
M  END
>  <Frequencies>  (10) 
0.00000063

>  <SMILES 1 Canonical Smiles>  (10) 
0.0000000996

>  <His-BRPF1 / H4Ac Peptide Interaction (HTRF) IC50 [mol/l] (mean)>  (10) 
0.0000000547

>  <His-BRPF2 / H4Ac Peptide Interaction (HTRF) IC50 [mol/l] (mean)>  (10) 
0.000000263

>  <GST-TAF1 BD2 HTRF IC50 [mol/l] (mean)>  (10) 
>2.00E-5

>  <GST-TAF1L BD2 HTRF IC50 [mol/l] (mean)>  (10) 
>2.00E-5

$$$$
10
     RDKit          2D

 28 32  0  0  0  0  0  0  0  0999 V2000
    0.6352    4.3346    0.0000 C   0  0  0  0  0  0  0  0  0  0  0  0
   -0.0326    3.5900    0.0000 N   0  0  0  0  0  0  0  0  0  0  0  0
   -1.0272    3.6926    0.0000 C   0  0  0  0  0  0  0  0  0  0  0  0
   -1.5288    4.5576    0.0000 O   0  0  0  0  0  0  0  0  0  0  0  0
   -1.4322    2.7784    0.0000 N   0  0  0  0  0  0  0  0  0  0  0  0
   -2.4098    2.5684    0.0000 C   0  0  0  0  0  0  0  0  0  0  0  0
   -0.6876    2.1108    0.0000 C   0  0  0  0  0  0  0  0  0  0  0  0
   -0.6856    1.1108    0.0000 C   0  0  0  0  0  0  0  0  0  0  0  0
    0.1814    0.6126    0.0000 C   0  0  0  0  0  0  0  0  0  0  0  0
    0.1834   -0.3874    0.0000 N   0  0  0  0  0  0  0  0  0  0  0  0
    1.0506   -0.8858    0.0000 C   0  0  0  0  0  0  0  0  0  0  0  0
    1.9156   -0.3840    0.0000 O   0  0  0  0  0  0  0  0  0  0  0  0
    1.0526   -1.8858    0.0000 C   0  0  0  0  0  0  0  0  0  0  0  0
    1.9196   -2.3840    0.0000 C   0  0  0  0  0  0  0  0  0  0  0  0
    1.9216   -3.3840    0.0000 C   0  0  0  0  0  0  0  0  0  0  0  0
    1.0566   -3.8856    0.0000 C   0  0  0  0  0  0  0  0  0  0  0  0
    0.1896   -3.3874    0.0000 C   0  0  0  0  0  0  0  0  0  0  0  0
   -0.6754   -3.8892    0.0000 C   0  0  0  0  0  0  0  0  0  0  0  0
   -1.5426   -3.3908    0.0000 C   0  0  0  0  0  0  0  0  0  0  0  0
   -1.5446   -2.3908    0.0000 C   0  0  0  0  0  0  0  0  0  0  0  0
   -0.6796   -1.8892    0.0000 C   0  0  0  0  0  0  0  0  0  0  0  0
   -0.6816   -0.8892    0.0000 C   0  0  0  0  0  0  0  0  0  0  0  0
   -1.5486   -0.3910    0.0000 O   0  0  0  0  0  0  0  0  0  0  0  0
    0.1876   -2.3874    0.0000 C   0  0  0  0  0  0  0  0  0  0  0  0
    1.0464    1.1142    0.0000 C   0  0  0  0  0  0  0  0  0  0  0  0
    1.9134    0.6160    0.0000 Br  0  0  0  0  0  0  0  0  0  0  0  0
    1.0444    2.1142    0.0000 C   0  0  0  0  0  0  0  0  0  0  0  0
    0.1774    2.6124    0.0000 C   0  0  0  0  0  0  0  0  0  0  0  0
  1  2  1  0
  2  3  1  0
  3  4  2  0
  3  5  1  0
  5  6  1  0
  5  7  1  0
  7  8  2  0
  8  9  1  0
  9 10  1  0
 10 11  1  0
 11 12  2  0
 11 13  1  0
 13 14  2  0
 14 15  1  0
 15 16  2  0
 16 17  1  0
 17 18  2  0
 18 19  1  0
 19 20  2  0
 20 21  1  0
 21 22  1  0
 22 23  2  0
 21 24  2  0
  9 25  2  0
 25 26  1  0
 25 27  1  0
 27 28  2  0
 28  2  1  0
 28  7  1  0
 22 10  1  0
 24 13  1  0
 24 17  1  0
M  END
>  <Frequencies>  (11) 
0.000000855

>  <SMILES 1 Canonical Smiles>  (11) 
0.000000153

>  <His-BRPF1 / H4Ac Peptide Interaction (HTRF) IC50 [mol/l] (mean)>  (11) 
0.0000000873

>  <His-BRPF2 / H4Ac Peptide Interaction (HTRF) IC50 [mol/l] (mean)>  (11) 
0.000000463

>  <GST-TAF1 BD2 HTRF IC50 [mol/l] (mean)>  (11) 
>2.00E-5

>  <GST-TAF1L BD2 HTRF IC50 [mol/l] (mean)>  (11) 
>2.00E-5

$$$$
11
     RDKit          2D

 34 39  0  0  0  0  0  0  0  0999 V2000
   -4.3825   -0.9584    0.0000 C   0  0  0  0  0  0  0  0  0  0  0  0
   -3.4885   -0.4880    0.0000 N   0  0  0  0  0  0  0  0  0  0  0  0
   -3.4687    0.5734    0.0000 C   0  0  0  0  0  0  0  0  0  0  0  0
   -2.5261    1.0486    0.0000 C   0  0  0  0  0  0  0  0  0  0  0  0
   -1.6353    0.5144    0.0000 N   0  0  0  0  0  0  0  0  0  0  0  0
   -1.6997   -0.5512    0.0000 C   0  0  0  0  0  0  0  0  0  0  0  0
   -2.6191   -1.0626    0.0000 C   0  0  0  0  0  0  0  0  0  0  0  0
   -0.5569    1.1054    0.0000 C   0  0  0  0  0  0  0  0  0  0  0  0
   -0.5679    2.1340    0.0000 C   0  0  0  0  0  0  0  0  0  0  0  0
    0.3741    2.7204    0.0000 C   0  0  0  0  0  0  0  0  0  0  0  0
    0.5473    3.7016    0.0000 N   0  0  0  0  0  0  0  0  0  0  0  0
   -0.1343    4.4196    0.0000 C   0  0  0  0  0  0  0  0  0  0  0  0
    1.5761    3.8228    0.0000 C   0  0  0  0  0  0  0  0  0  0  0  0
    2.0559    4.7118    0.0000 O   0  0  0  0  0  0  0  0  0  0  0  0
    2.0417    2.8940    0.0000 N   0  0  0  0  0  0  0  0  0  0  0  0
    3.0163    2.7140    0.0000 C   0  0  0  0  0  0  0  0  0  0  0  0
    1.3101    2.1968    0.0000 C   0  0  0  0  0  0  0  0  0  0  0  0
    1.3657    1.1564    0.0000 C   0  0  0  0  0  0  0  0  0  0  0  0
    0.4327    0.6066    0.0000 C   0  0  0  0  0  0  0  0  0  0  0  0
    0.5443   -0.3240    0.0000 N   0  0  0  0  0  0  0  0  0  0  0  0
   -0.3161   -0.8420    0.0000 C   0  0  0  0  0  0  0  0  0  0  0  0
   -0.8693   -0.3528    0.0000 O   0  0  0  0  0  0  0  0  0  0  0  0
   -0.3399   -1.8420    0.0000 C   0  0  0  0  0  0  0  0  0  0  0  0
   -1.2331   -2.3358    0.0000 C   0  0  0  0  0  0  0  0  0  0  0  0
   -1.2097   -3.3718    0.0000 C   0  0  0  0  0  0  0  0  0  0  0  0
   -0.3393   -3.9010    0.0000 C   0  0  0  0  0  0  0  0  0  0  0  0
    0.5367   -3.3580    0.0000 C   0  0  0  0  0  0  0  0  0  0  0  0
    1.4187   -3.8782    0.0000 C   0  0  0  0  0  0  0  0  0  0  0  0
    2.2761   -3.3630    0.0000 C   0  0  0  0  0  0  0  0  0  0  0  0
    2.2891   -2.3486    0.0000 C   0  0  0  0  0  0  0  0  0  0  0  0
    1.4019   -1.8480    0.0000 C   0  0  0  0  0  0  0  0  0  0  0  0
    1.3919   -0.8360    0.0000 C   0  0  0  0  0  0  0  0  0  0  0  0
    2.2681   -0.3332    0.0000 O   0  0  0  0  0  0  0  0  0  0  0  0
    0.5393   -2.3238    0.0000 C   0  0  0  0  0  0  0  0  0  0  0  0
  1  2  1  0
  2  3  1  0
  3  4  1  0
  4  5  1  0
  5  6  1  0
  6  7  1  0
  5  8  1  0
  8  9  2  0
  9 10  1  0
 10 11  1  0
 11 12  1  0
 11 13  1  0
 13 14  2  0
 13 15  1  0
 15 16  1  0
 15 17  1  0
 17 18  1  0
 18 19  2  0
 19 20  1  0
 20 21  1  0
 21 22  2  0
 21 23  1  0
 23 24  2  0
 24 25  1  0
 25 26  2  0
 26 27  1  0
 27 28  2  0
 28 29  1  0
 29 30  2  0
 30 31  1  0
 31 32  1  0
 32 33  2  0
 31 34  2  0
  7  2  1  0
 19  8  1  0
 17 10  2  0
 32 20  1  0
 34 23  1  0
 34 27  1  0
M  END
>  <Frequencies>  (12) 
0.000000578

>  <SMILES 1 Canonical Smiles>  (12) 
0.000000366

>  <His-BRPF1 / H4Ac Peptide Interaction (HTRF) IC50 [mol/l] (mean)>  (12) 
0.0000015

>  <His-BRPF2 / H4Ac Peptide Interaction (HTRF) IC50 [mol/l] (mean)>  (12) 
0.00000418

>  <GST-TAF1 BD2 HTRF IC50 [mol/l] (mean)>  (12) 
>2.00E-5

>  <GST-TAF1L BD2 HTRF IC50 [mol/l] (mean)>  (12) 
>2.00E-5

$$$$
12
     RDKit          2D

 29 33  0  0  0  0  0  0  0  0999 V2000
    0.6585    4.5032    0.0000 C   0  0  0  0  0  0  0  0  0  0  0  0
   -0.0093    3.7586    0.0000 N   0  0  0  0  0  0  0  0  0  0  0  0
   -1.0039    3.8612    0.0000 C   0  0  0  0  0  0  0  0  0  0  0  0
   -1.5055    4.7262    0.0000 O   0  0  0  0  0  0  0  0  0  0  0  0
   -1.4089    2.9468    0.0000 N   0  0  0  0  0  0  0  0  0  0  0  0
   -2.3865    2.7370    0.0000 C   0  0  0  0  0  0  0  0  0  0  0  0
   -0.6643    2.2792    0.0000 C   0  0  0  0  0  0  0  0  0  0  0  0
   -0.6623    1.2792    0.0000 C   0  0  0  0  0  0  0  0  0  0  0  0
    0.2047    0.7810    0.0000 C   0  0  0  0  0  0  0  0  0  0  0  0
    0.2067   -0.2190    0.0000 N   0  0  0  0  0  0  0  0  0  0  0  0
    1.0737   -0.7172    0.0000 C   0  0  0  0  0  0  0  0  0  0  0  0
    1.9387   -0.2154    0.0000 O   0  0  0  0  0  0  0  0  0  0  0  0
    1.0757   -1.7172    0.0000 C   0  0  0  0  0  0  0  0  0  0  0  0
    1.9427   -2.2154    0.0000 C   0  0  0  0  0  0  0  0  0  0  0  0
    1.9449   -3.2154    0.0000 C   0  0  0  0  0  0  0  0  0  0  0  0
    1.0799   -3.7172    0.0000 C   0  0  0  0  0  0  0  0  0  0  0  0
    0.2127   -3.2188    0.0000 C   0  0  0  0  0  0  0  0  0  0  0  0
   -0.6523   -3.7206    0.0000 C   0  0  0  0  0  0  0  0  0  0  0  0
   -0.6503   -4.7206    0.0000 Br  0  0  0  0  0  0  0  0  0  0  0  0
   -1.5193   -3.2224    0.0000 C   0  0  0  0  0  0  0  0  0  0  0  0
   -1.5213   -2.2224    0.0000 C   0  0  0  0  0  0  0  0  0  0  0  0
   -0.6563   -1.7206    0.0000 C   0  0  0  0  0  0  0  0  0  0  0  0
   -0.6583   -0.7206    0.0000 C   0  0  0  0  0  0  0  0  0  0  0  0
   -1.5253   -0.2224    0.0000 O   0  0  0  0  0  0  0  0  0  0  0  0
    0.2107   -2.2188    0.0000 C   0  0  0  0  0  0  0  0  0  0  0  0
    1.0697    1.2828    0.0000 C   0  0  0  0  0  0  0  0  0  0  0  0
    1.9367    0.7844    0.0000 C   0  0  0  0  0  0  0  0  0  0  0  0
    1.0677    2.2828    0.0000 C   0  0  0  0  0  0  0  0  0  0  0  0
    0.2007    2.7810    0.0000 C   0  0  0  0  0  0  0  0  0  0  0  0
  1  2  1  0
  2  3  1  0
  3  4  2  0
  3  5  1  0
  5  6  1  0
  5  7  1  0
  7  8  2  0
  8  9  1  0
  9 10  1  0
 10 11  1  0
 11 12  2  0
 11 13  1  0
 13 14  2  0
 14 15  1  0
 15 16  2  0
 16 17  1  0
 17 18  2  0
 18 19  1  0
 18 20  1  0
 20 21  2  0
 21 22  1  0
 22 23  1  0
 23 24  2  0
 22 25  2  0
  9 26  2  0
 26 27  1  0
 26 28  1  0
 28 29  2  0
 29  2  1  0
 29  7  1  0
 23 10  1  0
 25 13  1  0
 25 17  1  0
M  END
>  <Frequencies>  (13) 
0.000000591

>  <SMILES 1 Canonical Smiles>  (13) 
0.0000000508

>  <His-BRPF1 / H4Ac Peptide Interaction (HTRF) IC50 [mol/l] (mean)>  (13) 
0.00000000418

>  <His-BRPF2 / H4Ac Peptide Interaction (HTRF) IC50 [mol/l] (mean)>  (13) 
0.0000000188

>  <GST-TAF1 BD2 HTRF IC50 [mol/l] (mean)>  (13) 
>0.95E-5

>  <GST-TAF1L BD2 HTRF IC50 [mol/l] (mean)>  (13) 
>2.00E-5

$$$$
13
     RDKit          2D

 29 33  0  0  0  0  0  0  0  0999 V2000
    0.6585    4.5032    0.0000 C   0  0  0  0  0  0  0  0  0  0  0  0
   -0.0093    3.7586    0.0000 N   0  0  0  0  0  0  0  0  0  0  0  0
   -1.0039    3.8612    0.0000 C   0  0  0  0  0  0  0  0  0  0  0  0
   -1.5055    4.7262    0.0000 O   0  0  0  0  0  0  0  0  0  0  0  0
   -1.4089    2.9468    0.0000 N   0  0  0  0  0  0  0  0  0  0  0  0
   -2.3865    2.7370    0.0000 C   0  0  0  0  0  0  0  0  0  0  0  0
   -0.6643    2.2792    0.0000 C   0  0  0  0  0  0  0  0  0  0  0  0
   -0.6623    1.2792    0.0000 C   0  0  0  0  0  0  0  0  0  0  0  0
    0.2047    0.7810    0.0000 C   0  0  0  0  0  0  0  0  0  0  0  0
    0.2067   -0.2190    0.0000 N   0  0  0  0  0  0  0  0  0  0  0  0
    1.0737   -0.7172    0.0000 C   0  0  0  0  0  0  0  0  0  0  0  0
    1.9387   -0.2154    0.0000 O   0  0  0  0  0  0  0  0  0  0  0  0
    1.0757   -1.7172    0.0000 C   0  0  0  0  0  0  0  0  0  0  0  0
    1.9427   -2.2154    0.0000 C   0  0  0  0  0  0  0  0  0  0  0  0
    1.9449   -3.2154    0.0000 C   0  0  0  0  0  0  0  0  0  0  0  0
    1.0799   -3.7172    0.0000 C   0  0  0  0  0  0  0  0  0  0  0  0
    0.2127   -3.2188    0.0000 C   0  0  0  0  0  0  0  0  0  0  0  0
   -0.6523   -3.7206    0.0000 C   0  0  0  0  0  0  0  0  0  0  0  0
   -0.6503   -4.7206    0.0000 Cl  0  0  0  0  0  0  0  0  0  0  0  0
   -1.5193   -3.2224    0.0000 C   0  0  0  0  0  0  0  0  0  0  0  0
   -1.5213   -2.2224    0.0000 C   0  0  0  0  0  0  0  0  0  0  0  0
   -0.6563   -1.7206    0.0000 C   0  0  0  0  0  0  0  0  0  0  0  0
   -0.6583   -0.7206    0.0000 C   0  0  0  0  0  0  0  0  0  0  0  0
   -1.5253   -0.2224    0.0000 O   0  0  0  0  0  0  0  0  0  0  0  0
    0.2107   -2.2188    0.0000 C   0  0  0  0  0  0  0  0  0  0  0  0
    1.0697    1.2828    0.0000 C   0  0  0  0  0  0  0  0  0  0  0  0
    1.9367    0.7844    0.0000 C   0  0  0  0  0  0  0  0  0  0  0  0
    1.0677    2.2828    0.0000 C   0  0  0  0  0  0  0  0  0  0  0  0
    0.2007    2.7810    0.0000 C   0  0  0  0  0  0  0  0  0  0  0  0
  1  2  1  0
  2  3  1  0
  3  4  2  0
  3  5  1  0
  5  6  1  0
  5  7  1  0
  7  8  2  0
  8  9  1  0
  9 10  1  0
 10 11  1  0
 11 12  2  0
 11 13  1  0
 13 14  2  0
 14 15  1  0
 15 16  2  0
 16 17  1  0
 17 18  2  0
 18 19  1  0
 18 20  1  0
 20 21  2  0
 21 22  1  0
 22 23  1  0
 23 24  2  0
 22 25  2  0
  9 26  2  0
 26 27  1  0
 26 28  1  0
 28 29  2  0
 29  2  1  0
 29  7  1  0
 23 10  1  0
 25 13  1  0
 25 17  1  0
M  END
>  <Frequencies>  (14) 
0.000000547

>  <SMILES 1 Canonical Smiles>  (14) 
0.0000000371

>  <His-BRPF1 / H4Ac Peptide Interaction (HTRF) IC50 [mol/l] (mean)>  (14) 
0.00000000798

>  <His-BRPF2 / H4Ac Peptide Interaction (HTRF) IC50 [mol/l] (mean)>  (14) 
0.0000000209

>  <GST-TAF1 BD2 HTRF IC50 [mol/l] (mean)>  (14) 
>1.015E-5

>  <GST-TAF1L BD2 HTRF IC50 [mol/l] (mean)>  (14) 
>2.00E-5

$$$$
14
     RDKit          2D

 31 35  0  0  0  0  0  0  0  0999 V2000
    0.8960    4.7275    0.0000 C   0  0  0  0  0  0  0  0  0  0  0  0
    0.2284    3.9829    0.0000 N   0  0  0  0  0  0  0  0  0  0  0  0
   -0.7662    4.0855    0.0000 C   0  0  0  0  0  0  0  0  0  0  0  0
   -1.2680    4.9505    0.0000 O   0  0  0  0  0  0  0  0  0  0  0  0
   -1.1712    3.1711    0.0000 N   0  0  0  0  0  0  0  0  0  0  0  0
   -2.1488    2.9613    0.0000 C   0  0  0  0  0  0  0  0  0  0  0  0
   -0.4266    2.5035    0.0000 C   0  0  0  0  0  0  0  0  0  0  0  0
   -0.4246    1.5035    0.0000 C   0  0  0  0  0  0  0  0  0  0  0  0
    0.4424    1.0053    0.0000 C   0  0  0  0  0  0  0  0  0  0  0  0
    0.4444    0.0053    0.0000 N   0  0  0  0  0  0  0  0  0  0  0  0
    1.3114   -0.4929    0.0000 C   0  0  0  0  0  0  0  0  0  0  0  0
    2.1764    0.0089    0.0000 O   0  0  0  0  0  0  0  0  0  0  0  0
    1.3134   -1.4929    0.0000 C   0  0  0  0  0  0  0  0  0  0  0  0
    2.1804   -1.9911    0.0000 C   0  0  0  0  0  0  0  0  0  0  0  0
    2.1824   -2.9911    0.0000 C   0  0  0  0  0  0  0  0  0  0  0  0
    1.3174   -3.4929    0.0000 C   0  0  0  0  0  0  0  0  0  0  0  0
    0.4504   -2.9945    0.0000 C   0  0  0  0  0  0  0  0  0  0  0  0
   -0.4146   -3.4963    0.0000 C   0  0  0  0  0  0  0  0  0  0  0  0
   -1.2816   -2.9981    0.0000 C   0  0  0  0  0  0  0  0  0  0  0  0
   -1.2836   -1.9981    0.0000 C   0  0  0  0  0  0  0  0  0  0  0  0
   -0.4186   -1.4963    0.0000 C   0  0  0  0  0  0  0  0  0  0  0  0
   -0.4206   -0.4963    0.0000 C   0  0  0  0  0  0  0  0  0  0  0  0
   -1.2876    0.0019    0.0000 O   0  0  0  0  0  0  0  0  0  0  0  0
    0.4484   -1.9947    0.0000 C   0  0  0  0  0  0  0  0  0  0  0  0
   -2.1466   -3.4997    0.0000 N   0  0  0  0  0  4  0  0  0  0  0  0
   -3.0136   -3.0015    0.0000 O   0  0  0  0  0  0  0  0  0  0  0  0
   -2.1446   -4.4997    0.0000 O   0  0  0  0  0  1  0  0  0  0  0  0
    1.3074    1.5071    0.0000 C   0  0  0  0  0  0  0  0  0  0  0  0
    2.1744    1.0087    0.0000 C   0  0  0  0  0  0  0  0  0  0  0  0
    1.3054    2.5071    0.0000 C   0  0  0  0  0  0  0  0  0  0  0  0
    0.4384    3.0053    0.0000 C   0  0  0  0  0  0  0  0  0  0  0  0
  1  2  1  0
  2  3  1  0
  3  4  2  0
  3  5  1  0
  5  6  1  0
  5  7  1  0
  7  8  2  0
  8  9  1  0
  9 10  1  0
 10 11  1  0
 11 12  2  0
 11 13  1  0
 13 14  2  0
 14 15  1  0
 15 16  2  0
 16 17  1  0
 17 18  2  0
 18 19  1  0
 19 20  2  0
 20 21  1  0
 21 22  1  0
 22 23  2  0
 21 24  2  0
 19 25  1  0
 25 26  2  0
 25 27  1  0
  9 28  2  0
 28 29  1  0
 28 30  1  0
 30 31  2  0
 31  2  1  0
 31  7  1  0
 22 10  1  0
 24 13  1  0
 24 17  1  0
M  CHG  2  25   1  27  -1
M  END
>  <Frequencies>  (15) 
0.000000185

>  <SMILES 1 Canonical Smiles>  (15) 
0.0000000819

>  <His-BRPF1 / H4Ac Peptide Interaction (HTRF) IC50 [mol/l] (mean)>  (15) 
0.0000000577

>  <His-BRPF2 / H4Ac Peptide Interaction (HTRF) IC50 [mol/l] (mean)>  (15) 
0.000000744

>  <GST-TAF1 BD2 HTRF IC50 [mol/l] (mean)>  (15) 
>2.00E-5

>  <GST-TAF1L BD2 HTRF IC50 [mol/l] (mean)>  (15) 
>2.00E-5

$$$$
15
     RDKit          2D

 29 33  0  0  0  0  0  0  0  0999 V2000
    0.7181    4.4688    0.0000 C   0  0  0  0  0  0  0  0  0  0  0  0
    0.0505    3.7242    0.0000 N   0  0  0  0  0  0  0  0  0  0  0  0
   -0.9441    3.8268    0.0000 C   0  0  0  0  0  0  0  0  0  0  0  0
   -1.4459    4.6918    0.0000 O   0  0  0  0  0  0  0  0  0  0  0  0
   -1.3491    2.9124    0.0000 N   0  0  0  0  0  0  0  0  0  0  0  0
   -2.3267    2.7026    0.0000 C   0  0  0  0  0  0  0  0  0  0  0  0
   -0.6045    2.2450    0.0000 C   0  0  0  0  0  0  0  0  0  0  0  0
   -0.6025    1.2450    0.0000 C   0  0  0  0  0  0  0  0  0  0  0  0
    0.2645    0.7466    0.0000 C   0  0  0  0  0  0  0  0  0  0  0  0
    0.2665   -0.2534    0.0000 N   0  0  0  0  0  0  0  0  0  0  0  0
    1.1335   -0.7516    0.0000 C   0  0  0  0  0  0  0  0  0  0  0  0
    1.9985   -0.2498    0.0000 O   0  0  0  0  0  0  0  0  0  0  0  0
    1.1355   -1.7516    0.0000 C   0  0  0  0  0  0  0  0  0  0  0  0
    2.0025   -2.2498    0.0000 C   0  0  0  0  0  0  0  0  0  0  0  0
    2.0045   -3.2498    0.0000 C   0  0  0  0  0  0  0  0  0  0  0  0
    1.1395   -3.7514    0.0000 C   0  0  0  0  0  0  0  0  0  0  0  0
    0.2725   -3.2532    0.0000 C   0  0  0  0  0  0  0  0  0  0  0  0
   -0.5925   -3.7550    0.0000 C   0  0  0  0  0  0  0  0  0  0  0  0
   -1.4595   -3.2566    0.0000 C   0  0  0  0  0  0  0  0  0  0  0  0
   -2.3245   -3.7584    0.0000 N   0  0  0  0  0  0  0  0  0  0  0  0
   -1.4615   -2.2568    0.0000 C   0  0  0  0  0  0  0  0  0  0  0  0
   -0.5965   -1.7550    0.0000 C   0  0  0  0  0  0  0  0  0  0  0  0
   -0.5985   -0.7550    0.0000 C   0  0  0  0  0  0  0  0  0  0  0  0
   -1.4655   -0.2568    0.0000 O   0  0  0  0  0  0  0  0  0  0  0  0
    0.2705   -2.2532    0.0000 C   0  0  0  0  0  0  0  0  0  0  0  0
    1.1295    1.2484    0.0000 C   0  0  0  0  0  0  0  0  0  0  0  0
    1.9965    0.7502    0.0000 C   0  0  0  0  0  0  0  0  0  0  0  0
    1.1275    2.2484    0.0000 C   0  0  0  0  0  0  0  0  0  0  0  0
    0.2605    2.7466    0.0000 C   0  0  0  0  0  0  0  0  0  0  0  0
  1  2  1  0
  2  3  1  0
  3  4  2  0
  3  5  1  0
  5  6  1  0
  5  7  1  0
  7  8  2  0
  8  9  1  0
  9 10  1  0
 10 11  1  0
 11 12  2  0
 11 13  1  0
 13 14  2  0
 14 15  1  0
 15 16  2  0
 16 17  1  0
 17 18  2  0
 18 19  1  0
 19 20  1  0
 19 21  2  0
 21 22  1  0
 22 23  1  0
 23 24  2  0
 22 25  2  0
  9 26  2  0
 26 27  1  0
 26 28  1  0
 28 29  2  0
 29  2  1  0
 29  7  1  0
 23 10  1  0
 25 13  1  0
 25 17  1  0
M  END
>  <Frequencies>  (16) 
0.00000551

>  <SMILES 1 Canonical Smiles>  (16) 
0.0000000629

>  <His-BRPF1 / H4Ac Peptide Interaction (HTRF) IC50 [mol/l] (mean)>  (16) 
0.0000000332

>  <His-BRPF2 / H4Ac Peptide Interaction (HTRF) IC50 [mol/l] (mean)>  (16) 
0.000000167

>  <GST-TAF1 BD2 HTRF IC50 [mol/l] (mean)>  (16) 
>0.995E-5

>  <GST-TAF1L BD2 HTRF IC50 [mol/l] (mean)>  (16) 
>2.00E-5

$$$$
16
     RDKit          2D

 29 33  0  0  0  0  0  0  0  0999 V2000
    0.7181    4.4688    0.0000 C   0  0  0  0  0  0  0  0  0  0  0  0
    0.0505    3.7242    0.0000 N   0  0  0  0  0  0  0  0  0  0  0  0
   -0.9441    3.8268    0.0000 C   0  0  0  0  0  0  0  0  0  0  0  0
   -1.4459    4.6918    0.0000 O   0  0  0  0  0  0  0  0  0  0  0  0
   -1.3491    2.9124    0.0000 N   0  0  0  0  0  0  0  0  0  0  0  0
   -2.3267    2.7026    0.0000 C   0  0  0  0  0  0  0  0  0  0  0  0
   -0.6045    2.2450    0.0000 C   0  0  0  0  0  0  0  0  0  0  0  0
   -0.6025    1.2450    0.0000 C   0  0  0  0  0  0  0  0  0  0  0  0
    0.2645    0.7466    0.0000 C   0  0  0  0  0  0  0  0  0  0  0  0
    0.2665   -0.2534    0.0000 N   0  0  0  0  0  0  0  0  0  0  0  0
    1.1335   -0.7516    0.0000 C   0  0  0  0  0  0  0  0  0  0  0  0
    1.9985   -0.2498    0.0000 O   0  0  0  0  0  0  0  0  0  0  0  0
    1.1355   -1.7516    0.0000 C   0  0  0  0  0  0  0  0  0  0  0  0
    2.0025   -2.2498    0.0000 C   0  0  0  0  0  0  0  0  0  0  0  0
    2.0045   -3.2498    0.0000 C   0  0  0  0  0  0  0  0  0  0  0  0
    1.1395   -3.7514    0.0000 C   0  0  0  0  0  0  0  0  0  0  0  0
    0.2725   -3.2532    0.0000 C   0  0  0  0  0  0  0  0  0  0  0  0
   -0.5925   -3.7550    0.0000 C   0  0  0  0  0  0  0  0  0  0  0  0
   -1.4595   -3.2566    0.0000 C   0  0  0  0  0  0  0  0  0  0  0  0
   -2.3245   -3.7584    0.0000 O   0  0  0  0  0  0  0  0  0  0  0  0
   -1.4615   -2.2568    0.0000 C   0  0  0  0  0  0  0  0  0  0  0  0
   -0.5965   -1.7550    0.0000 C   0  0  0  0  0  0  0  0  0  0  0  0
   -0.5985   -0.7550    0.0000 C   0  0  0  0  0  0  0  0  0  0  0  0
   -1.4655   -0.2568    0.0000 O   0  0  0  0  0  0  0  0  0  0  0  0
    0.2705   -2.2532    0.0000 C   0  0  0  0  0  0  0  0  0  0  0  0
    1.1295    1.2484    0.0000 C   0  0  0  0  0  0  0  0  0  0  0  0
    1.9965    0.7502    0.0000 C   0  0  0  0  0  0  0  0  0  0  0  0
    1.1275    2.2484    0.0000 C   0  0  0  0  0  0  0  0  0  0  0  0
    0.2605    2.7466    0.0000 C   0  0  0  0  0  0  0  0  0  0  0  0
  1  2  1  0
  2  3  1  0
  3  4  2  0
  3  5  1  0
  5  6  1  0
  5  7  1  0
  7  8  2  0
  8  9  1  0
  9 10  1  0
 10 11  1  0
 11 12  2  0
 11 13  1  0
 13 14  2  0
 14 15  1  0
 15 16  2  0
 16 17  1  0
 17 18  2  0
 18 19  1  0
 19 20  1  0
 19 21  2  0
 21 22  1  0
 22 23  1  0
 23 24  2  0
 22 25  2  0
  9 26  2  0
 26 27  1  0
 26 28  1  0
 28 29  2  0
 29  2  1  0
 29  7  1  0
 23 10  1  0
 25 13  1  0
 25 17  1  0
M  END
>  <Frequencies>  (17) 
0.00000369

>  <SMILES 1 Canonical Smiles>  (17) 
0.000000102

>  <His-BRPF1 / H4Ac Peptide Interaction (HTRF) IC50 [mol/l] (mean)>  (17) 
0.0000000131

>  <His-BRPF2 / H4Ac Peptide Interaction (HTRF) IC50 [mol/l] (mean)>  (17) 
0.0000000977

>  <GST-TAF1 BD2 HTRF IC50 [mol/l] (mean)>  (17) 
>1.43E-5

>  <GST-TAF1L BD2 HTRF IC50 [mol/l] (mean)>  (17) 
>2.00E-5

$$$$
17
     RDKit          2D

 29 33  0  0  0  0  0  0  0  0999 V2000
    0.7181    4.4688    0.0000 C   0  0  0  0  0  0  0  0  0  0  0  0
    0.0505    3.7242    0.0000 N   0  0  0  0  0  0  0  0  0  0  0  0
   -0.9441    3.8268    0.0000 C   0  0  0  0  0  0  0  0  0  0  0  0
   -1.4459    4.6918    0.0000 O   0  0  0  0  0  0  0  0  0  0  0  0
   -1.3491    2.9124    0.0000 N   0  0  0  0  0  0  0  0  0  0  0  0
   -2.3267    2.7026    0.0000 C   0  0  0  0  0  0  0  0  0  0  0  0
   -0.6045    2.2450    0.0000 C   0  0  0  0  0  0  0  0  0  0  0  0
   -0.6025    1.2450    0.0000 C   0  0  0  0  0  0  0  0  0  0  0  0
    0.2645    0.7466    0.0000 C   0  0  0  0  0  0  0  0  0  0  0  0
    0.2665   -0.2534    0.0000 N   0  0  0  0  0  0  0  0  0  0  0  0
    1.1335   -0.7516    0.0000 C   0  0  0  0  0  0  0  0  0  0  0  0
    1.9985   -0.2498    0.0000 O   0  0  0  0  0  0  0  0  0  0  0  0
    1.1355   -1.7516    0.0000 C   0  0  0  0  0  0  0  0  0  0  0  0
    2.0025   -2.2498    0.0000 C   0  0  0  0  0  0  0  0  0  0  0  0
    2.0045   -3.2498    0.0000 C   0  0  0  0  0  0  0  0  0  0  0  0
    1.1395   -3.7514    0.0000 C   0  0  0  0  0  0  0  0  0  0  0  0
    0.2725   -3.2532    0.0000 C   0  0  0  0  0  0  0  0  0  0  0  0
   -0.5925   -3.7550    0.0000 C   0  0  0  0  0  0  0  0  0  0  0  0
   -1.4595   -3.2566    0.0000 C   0  0  0  0  0  0  0  0  0  0  0  0
   -2.3245   -3.7584    0.0000 Br  0  0  0  0  0  0  0  0  0  0  0  0
   -1.4615   -2.2568    0.0000 C   0  0  0  0  0  0  0  0  0  0  0  0
   -0.5965   -1.7550    0.0000 C   0  0  0  0  0  0  0  0  0  0  0  0
   -0.5985   -0.7550    0.0000 C   0  0  0  0  0  0  0  0  0  0  0  0
   -1.4655   -0.2568    0.0000 O   0  0  0  0  0  0  0  0  0  0  0  0
    0.2705   -2.2532    0.0000 C   0  0  0  0  0  0  0  0  0  0  0  0
    1.1295    1.2484    0.0000 C   0  0  0  0  0  0  0  0  0  0  0  0
    1.9965    0.7502    0.0000 C   0  0  0  0  0  0  0  0  0  0  0  0
    1.1275    2.2484    0.0000 C   0  0  0  0  0  0  0  0  0  0  0  0
    0.2605    2.7466    0.0000 C   0  0  0  0  0  0  0  0  0  0  0  0
  1  2  1  0
  2  3  1  0
  3  4  2  0
  3  5  1  0
  5  6  1  0
  5  7  1  0
  7  8  2  0
  8  9  1  0
  9 10  1  0
 10 11  1  0
 11 12  2  0
 11 13  1  0
 13 14  2  0
 14 15  1  0
 15 16  2  0
 16 17  1  0
 17 18  2  0
 18 19  1  0
 19 20  1  0
 19 21  2  0
 21 22  1  0
 22 23  1  0
 23 24  2  0
 22 25  2  0
  9 26  2  0
 26 27  1  0
 26 28  1  0
 28 29  2  0
 29  2  1  0
 29  7  1  0
 23 10  1  0
 25 13  1  0
 25 17  1  0
M  END
>  <Frequencies>  (18) 
0.0000019

>  <SMILES 1 Canonical Smiles>  (18) 
0.000000124

>  <His-BRPF1 / H4Ac Peptide Interaction (HTRF) IC50 [mol/l] (mean)>  (18) 
0.000000017

>  <His-BRPF2 / H4Ac Peptide Interaction (HTRF) IC50 [mol/l] (mean)>  (18) 
0.0000000968

>  <GST-TAF1 BD2 HTRF IC50 [mol/l] (mean)>  (18) 
>17.5E-5

>  <GST-TAF1L BD2 HTRF IC50 [mol/l] (mean)>  (18) 
>2.00E-5

$$$$
18
     RDKit          2D

 30 34  0  0  0  0  0  0  0  0999 V2000
    0.8245    4.6107    0.0000 C   0  0  0  0  0  0  0  0  0  0  0  0
    0.1567    3.8663    0.0000 N   0  0  0  0  0  0  0  0  0  0  0  0
   -0.8377    3.9689    0.0000 C   0  0  0  0  0  0  0  0  0  0  0  0
   -1.3395    4.8339    0.0000 O   0  0  0  0  0  0  0  0  0  0  0  0
   -1.2429    3.0545    0.0000 N   0  0  0  0  0  0  0  0  0  0  0  0
   -2.2203    2.8447    0.0000 C   0  0  0  0  0  0  0  0  0  0  0  0
   -0.4983    2.3869    0.0000 C   0  0  0  0  0  0  0  0  0  0  0  0
   -0.4963    1.3869    0.0000 C   0  0  0  0  0  0  0  0  0  0  0  0
    0.3709    0.8887    0.0000 C   0  0  0  0  0  0  0  0  0  0  0  0
    0.3729   -0.1113    0.0000 N   0  0  0  0  0  0  0  0  0  0  0  0
    1.2399   -0.6095    0.0000 C   0  0  0  0  0  0  0  0  0  0  0  0
    2.1049   -0.1079    0.0000 O   0  0  0  0  0  0  0  0  0  0  0  0
    1.2419   -1.6095    0.0000 C   0  0  0  0  0  0  0  0  0  0  0  0
    2.1089   -2.1079    0.0000 C   0  0  0  0  0  0  0  0  0  0  0  0
    2.1109   -3.1077    0.0000 C   0  0  0  0  0  0  0  0  0  0  0  0
    1.2459   -3.6095    0.0000 C   0  0  0  0  0  0  0  0  0  0  0  0
    0.3789   -3.1113    0.0000 C   0  0  0  0  0  0  0  0  0  0  0  0
   -0.4861   -3.6129    0.0000 C   0  0  0  0  0  0  0  0  0  0  0  0
   -1.3531   -3.1147    0.0000 C   0  0  0  0  0  0  0  0  0  0  0  0
   -1.3551   -2.1147    0.0000 C   0  0  0  0  0  0  0  0  0  0  0  0
   -0.4901   -1.6129    0.0000 C   0  0  0  0  0  0  0  0  0  0  0  0
   -0.4921   -0.6131    0.0000 C   0  0  0  0  0  0  0  0  0  0  0  0
   -1.3593   -0.1147    0.0000 O   0  0  0  0  0  0  0  0  0  0  0  0
    0.3769   -2.1113    0.0000 C   0  0  0  0  0  0  0  0  0  0  0  0
   -2.2181   -3.6163    0.0000 C   0  0  0  0  0  0  0  0  0  0  0  0
   -3.0831   -4.1181    0.0000 N   0  0  0  0  0  0  0  0  0  0  0  0
    1.2359    1.3903    0.0000 C   0  0  0  0  0  0  0  0  0  0  0  0
    2.1029    0.8921    0.0000 C   0  0  0  0  0  0  0  0  0  0  0  0
    1.2337    2.3903    0.0000 C   0  0  0  0  0  0  0  0  0  0  0  0
    0.3667    2.8887    0.0000 C   0  0  0  0  0  0  0  0  0  0  0  0
  1  2  1  0
  2  3  1  0
  3  4  2  0
  3  5  1  0
  5  6  1  0
  5  7  1  0
  7  8  2  0
  8  9  1  0
  9 10  1  0
 10 11  1  0
 11 12  2  0
 11 13  1  0
 13 14  2  0
 14 15  1  0
 15 16  2  0
 16 17  1  0
 17 18  2  0
 18 19  1  0
 19 20  2  0
 20 21  1  0
 21 22  1  0
 22 23  2  0
 21 24  2  0
 19 25  1  0
 25 26  3  0
  9 27  2  0
 27 28  1  0
 27 29  1  0
 29 30  2  0
 30  2  1  0
 30  7  1  0
 22 10  1  0
 24 13  1  0
 24 17  1  0
M  END
>  <Frequencies>  (19) 
0.00000223

>  <SMILES 1 Canonical Smiles>  (19) 
0.000000248

>  <His-BRPF1 / H4Ac Peptide Interaction (HTRF) IC50 [mol/l] (mean)>  (19) 
0.0000000224

>  <His-BRPF2 / H4Ac Peptide Interaction (HTRF) IC50 [mol/l] (mean)>  (19) 
0.000000166

>  <GST-TAF1 BD2 HTRF IC50 [mol/l] (mean)>  (19) 
>2.00E-5

>  <GST-TAF1L BD2 HTRF IC50 [mol/l] (mean)>  (19) 
>2.00E-5

$$$$
19
     RDKit          2D

 34 39  0  0  0  0  0  0  0  0999 V2000
   -4.2635    3.3567    0.0000 C   0  0  0  0  0  0  0  0  0  0  0  0
   -3.9565    2.4049    0.0000 N   0  0  0  0  0  0  0  0  0  0  0  0
   -4.5459    1.5973    0.0000 C   0  0  0  0  0  0  0  0  0  0  0  0
   -5.5459    1.5993    0.0000 O   0  0  0  0  0  0  0  0  0  0  0  0
   -3.9597    0.7871    0.0000 N   0  0  0  0  0  0  0  0  0  0  0  0
   -4.2707   -0.1633    0.0000 C   0  0  0  0  0  0  0  0  0  0  0  0
   -3.0081    1.0943    0.0000 C   0  0  0  0  0  0  0  0  0  0  0  0
   -2.1431    0.5925    0.0000 C   0  0  0  0  0  0  0  0  0  0  0  0
   -1.2761    1.0909    0.0000 C   0  0  0  0  0  0  0  0  0  0  0  0
   -0.4111    0.5891    0.0000 N   0  0  0  0  0  0  0  0  0  0  0  0
    0.4559    1.0873    0.0000 C   0  0  0  0  0  0  0  0  0  0  0  0
    0.4579    2.0873    0.0000 O   0  0  0  0  0  0  0  0  0  0  0  0
    1.3209    0.5857    0.0000 C   0  0  0  0  0  0  0  0  0  0  0  0
    2.1879    1.0839    0.0000 C   0  0  0  0  0  0  0  0  0  0  0  0
    3.0529    0.5821    0.0000 C   0  0  0  0  0  0  0  0  0  0  0  0
    3.0509   -0.4177    0.0000 C   0  0  0  0  0  0  0  0  0  0  0  0
    2.1839   -0.9161    0.0000 C   0  0  0  0  0  0  0  0  0  0  0  0
    2.1819   -1.9161    0.0000 C   0  0  0  0  0  0  0  0  0  0  0  0
    1.3149   -2.4143    0.0000 C   0  0  0  0  0  0  0  0  0  0  0  0
    0.4499   -1.9125    0.0000 C   0  0  0  0  0  0  0  0  0  0  0  0
    0.4519   -0.9127    0.0000 C   0  0  0  0  0  0  0  0  0  0  0  0
   -0.4131   -0.4109    0.0000 C   0  0  0  0  0  0  0  0  0  0  0  0
   -1.2801   -0.9091    0.0000 O   0  0  0  0  0  0  0  0  0  0  0  0
    1.3189   -0.4143    0.0000 C   0  0  0  0  0  0  0  0  0  0  0  0
    3.0469   -2.4177    0.0000 N   0  0  0  0  0  0  0  0  0  0  0  0
    3.0449   -3.4177    0.0000 C   0  0  0  0  0  0  0  0  0  0  0  0
    3.9099   -3.9195    0.0000 C   0  0  0  0  0  0  0  0  0  0  0  0
    4.7769   -3.4211    0.0000 O   0  0  0  0  0  0  0  0  0  0  0  0
    4.7789   -2.4211    0.0000 C   0  0  0  0  0  0  0  0  0  0  0  0
    3.9139   -1.9195    0.0000 C   0  0  0  0  0  0  0  0  0  0  0  0
   -1.2741    2.0907    0.0000 C   0  0  0  0  0  0  0  0  0  0  0  0
   -0.4071    2.5891    0.0000 C   0  0  0  0  0  0  0  0  0  0  0  0
   -2.1391    2.5925    0.0000 C   0  0  0  0  0  0  0  0  0  0  0  0
   -3.0061    2.0943    0.0000 C   0  0  0  0  0  0  0  0  0  0  0  0
  1  2  1  0
  2  3  1  0
  3  4  2  0
  3  5  1  0
  5  6  1  0
  5  7  1  0
  7  8  2  0
  8  9  1  0
  9 10  1  0
 10 11  1  0
 11 12  2  0
 11 13  1  0
 13 14  2  0
 14 15  1  0
 15 16  2  0
 16 17  1  0
 17 18  2  0
 18 19  1  0
 19 20  2  0
 20 21  1  0
 21 22  1  0
 22 23  2  0
 21 24  2  0
 18 25  1  0
 25 26  1  0
 26 27  1  0
 27 28  1  0
 28 29  1  0
 29 30  1  0
  9 31  2  0
 31 32  1  0
 31 33  1  0
 33 34  2  0
 34  2  1  0
 34  7  1  0
 22 10  1  0
 24 13  1  0
 24 17  1  0
 30 25  1  0
M  END
>  <Frequencies>  (20) 
0.00000331

>  <SMILES 1 Canonical Smiles>  (20) 
0.0000000609

>  <His-BRPF1 / H4Ac Peptide Interaction (HTRF) IC50 [mol/l] (mean)>  (20) 
0.0000000902

>  <His-BRPF2 / H4Ac Peptide Interaction (HTRF) IC50 [mol/l] (mean)>  (20) 
0.000000309

>  <GST-TAF1 BD2 HTRF IC50 [mol/l] (mean)>  (20) 
>1.66E-5

>  <GST-TAF1L BD2 HTRF IC50 [mol/l] (mean)>  (20) 
>2.00E-5

$$$$
20
     RDKit          2D

 35 40  0  0  0  0  0  0  0  0999 V2000
   -4.4248    3.4688    0.0000 C   0  0  0  0  0  0  0  0  0  0  0  0
   -4.1178    2.5170    0.0000 N   0  0  0  0  0  0  0  0  0  0  0  0
   -4.7070    1.7094    0.0000 C   0  0  0  0  0  0  0  0  0  0  0  0
   -5.7070    1.7114    0.0000 O   0  0  0  0  0  0  0  0  0  0  0  0
   -4.1210    0.8992    0.0000 N   0  0  0  0  0  0  0  0  0  0  0  0
   -4.4318   -0.0512    0.0000 C   0  0  0  0  0  0  0  0  0  0  0  0
   -3.1694    1.2064    0.0000 C   0  0  0  0  0  0  0  0  0  0  0  0
   -2.3044    0.7046    0.0000 C   0  0  0  0  0  0  0  0  0  0  0  0
   -1.4374    1.2028    0.0000 C   0  0  0  0  0  0  0  0  0  0  0  0
   -0.5724    0.7012    0.0000 N   0  0  0  0  0  0  0  0  0  0  0  0
    0.2948    1.1994    0.0000 C   0  0  0  0  0  0  0  0  0  0  0  0
    0.2968    2.1994    0.0000 O   0  0  0  0  0  0  0  0  0  0  0  0
    1.1598    0.6978    0.0000 C   0  0  0  0  0  0  0  0  0  0  0  0
    2.0268    1.1960    0.0000 C   0  0  0  0  0  0  0  0  0  0  0  0
    2.8918    0.6942    0.0000 C   0  0  0  0  0  0  0  0  0  0  0  0
    2.8898   -0.3058    0.0000 C   0  0  0  0  0  0  0  0  0  0  0  0
    2.0228   -0.8040    0.0000 C   0  0  0  0  0  0  0  0  0  0  0  0
    2.0208   -1.8040    0.0000 C   0  0  0  0  0  0  0  0  0  0  0  0
    1.1536   -2.3022    0.0000 C   0  0  0  0  0  0  0  0  0  0  0  0
    0.2886   -1.8004    0.0000 C   0  0  0  0  0  0  0  0  0  0  0  0
    0.2906   -0.8006    0.0000 C   0  0  0  0  0  0  0  0  0  0  0  0
   -0.5744   -0.2988    0.0000 C   0  0  0  0  0  0  0  0  0  0  0  0
   -1.4414   -0.7970    0.0000 O   0  0  0  0  0  0  0  0  0  0  0  0
    1.1578   -0.3022    0.0000 C   0  0  0  0  0  0  0  0  0  0  0  0
    2.8858   -2.3056    0.0000 N   0  0  0  0  0  0  0  0  0  0  0  0
    2.8836   -3.3056    0.0000 C   0  0  0  0  0  0  0  0  0  0  0  0
    3.7488   -3.8074    0.0000 C   0  0  0  0  0  0  0  0  0  0  0  0
    4.6158   -3.3090    0.0000 C   0  0  0  0  0  0  0  0  0  0  0  0
    5.4808   -3.8108    0.0000 O   0  0  0  0  0  0  0  0  0  0  0  0
    4.6178   -2.3092    0.0000 C   0  0  0  0  0  0  0  0  0  0  0  0
    3.7528   -1.8074    0.0000 C   0  0  0  0  0  0  0  0  0  0  0  0
   -1.4352    2.2028    0.0000 C   0  0  0  0  0  0  0  0  0  0  0  0
   -0.5682    2.7012    0.0000 C   0  0  0  0  0  0  0  0  0  0  0  0
   -2.3002    2.7046    0.0000 C   0  0  0  0  0  0  0  0  0  0  0  0
   -3.1674    2.2064    0.0000 C   0  0  0  0  0  0  0  0  0  0  0  0
  1  2  1  0
  2  3  1  0
  3  4  2  0
  3  5  1  0
  5  6  1  0
  5  7  1  0
  7  8  2  0
  8  9  1  0
  9 10  1  0
 10 11  1  0
 11 12  2  0
 11 13  1  0
 13 14  2  0
 14 15  1  0
 15 16  2  0
 16 17  1  0
 17 18  2  0
 18 19  1  0
 19 20  2  0
 20 21  1  0
 21 22  1  0
 22 23  2  0
 21 24  2  0
 18 25  1  0
 25 26  1  0
 26 27  1  0
 27 28  1  0
 28 29  1  0
 28 30  1  0
 30 31  1  0
  9 32  2  0
 32 33  1  0
 32 34  1  0
 34 35  2  0
 35  2  1  0
 35  7  1  0
 22 10  1  0
 24 13  1  0
 24 17  1  0
 31 25  1  0
M  END
>  <Frequencies>  (21) 
0.00000415

>  <SMILES 1 Canonical Smiles>  (21) 
0.0000000658

>  <His-BRPF1 / H4Ac Peptide Interaction (HTRF) IC50 [mol/l] (mean)>  (21) 
0.0000000187

>  <His-BRPF2 / H4Ac Peptide Interaction (HTRF) IC50 [mol/l] (mean)>  (21) 
0.000000106

>  <GST-TAF1 BD2 HTRF IC50 [mol/l] (mean)>  (21) 
>1.21E-5

>  <GST-TAF1L BD2 HTRF IC50 [mol/l] (mean)>  (21) 
>2.00E-5

$$$$
21
     RDKit          2D

 35 40  0  0  0  0  0  0  0  0999 V2000
   -0.5332   -6.6540    0.0000 C   0  0  0  0  0  0  0  0  0  0  0  0
   -0.5352   -5.6540    0.0000 N   0  0  0  0  0  0  0  0  0  0  0  0
    0.3298   -5.1524    0.0000 C   0  0  0  0  0  0  0  0  0  0  0  0
    0.3278   -4.1524    0.0000 C   0  0  0  0  0  0  0  0  0  0  0  0
   -0.5392   -3.6542    0.0000 N   0  0  0  0  0  0  0  0  0  0  0  0
   -1.4044   -4.1558    0.0000 C   0  0  0  0  0  0  0  0  0  0  0  0
   -1.4022   -5.1558    0.0000 C   0  0  0  0  0  0  0  0  0  0  0  0
   -0.5414   -2.6542    0.0000 C   0  0  0  0  0  0  0  0  0  0  0  0
   -1.4084   -2.1558    0.0000 C   0  0  0  0  0  0  0  0  0  0  0  0
   -1.4104   -1.1560    0.0000 C   0  0  0  0  0  0  0  0  0  0  0  0
   -0.5454   -0.6542    0.0000 C   0  0  0  0  0  0  0  0  0  0  0  0
   -0.5474    0.3458    0.0000 C   0  0  0  0  0  0  0  0  0  0  0  0
   -1.4144    0.8440    0.0000 O   0  0  0  0  0  0  0  0  0  0  0  0
    0.3176    0.8474    0.0000 N   0  0  0  0  0  0  0  0  0  0  0  0
    1.1846    0.3492    0.0000 C   0  0  0  0  0  0  0  0  0  0  0  0
    2.0496    0.8510    0.0000 O   0  0  0  0  0  0  0  0  0  0  0  0
    1.1866   -0.6508    0.0000 C   0  0  0  0  0  0  0  0  0  0  0  0
    2.0538   -1.1490    0.0000 C   0  0  0  0  0  0  0  0  0  0  0  0
    2.0558   -2.1490    0.0000 C   0  0  0  0  0  0  0  0  0  0  0  0
    1.1908   -2.6508    0.0000 C   0  0  0  0  0  0  0  0  0  0  0  0
    0.3236   -2.1524    0.0000 C   0  0  0  0  0  0  0  0  0  0  0  0
    0.3216   -1.1524    0.0000 C   0  0  0  0  0  0  0  0  0  0  0  0
    0.3156    1.8474    0.0000 C   0  0  0  0  0  0  0  0  0  0  0  0
   -0.5514    2.3458    0.0000 C   0  0  0  0  0  0  0  0  0  0  0  0
   -0.5534    3.3458    0.0000 C   0  0  0  0  0  0  0  0  0  0  0  0
   -1.2980    4.0132    0.0000 N   0  0  0  0  0  0  0  0  0  0  0  0
   -2.2756    3.8034    0.0000 C   0  0  0  0  0  0  0  0  0  0  0  0
   -0.8930    4.9276    0.0000 C   0  0  0  0  0  0  0  0  0  0  0  0
   -1.3946    5.7926    0.0000 O   0  0  0  0  0  0  0  0  0  0  0  0
    0.1016    4.8250    0.0000 N   0  0  0  0  0  0  0  0  0  0  0  0
    0.7694    5.5696    0.0000 C   0  0  0  0  0  0  0  0  0  0  0  0
    0.3116    3.8474    0.0000 C   0  0  0  0  0  0  0  0  0  0  0  0
    1.1786    3.3492    0.0000 C   0  0  0  0  0  0  0  0  0  0  0  0
    1.1806    2.3492    0.0000 C   0  0  0  0  0  0  0  0  0  0  0  0
    2.0476    1.8510    0.0000 C   0  0  0  0  0  0  0  0  0  0  0  0
  1  2  1  0
  2  3  1  0
  3  4  1  0
  4  5  1  0
  5  6  1  0
  6  7  1  0
  5  8  1  0
  8  9  2  0
  9 10  1  0
 10 11  2  0
 11 12  1  0
 12 13  2  0
 12 14  1  0
 14 15  1  0
 15 16  2  0
 15 17  1  0
 17 18  1  0
 18 19  2  0
 19 20  1  0
 20 21  2  0
 21 22  1  0
 14 23  1  0
 23 24  2  0
 24 25  1  0
 25 26  1  0
 26 27  1  0
 26 28  1  0
 28 29  2  0
 28 30  1  0
 30 31  1  0
 30 32  1  0
 32 33  1  0
 33 34  2  0
 34 35  1  0
  7  2  1  0
 21  8  1  0
 22 11  1  0
 22 17  2  0
 34 23  1  0
 32 25  2  0
M  END
>  <Frequencies>  (22) 
0.00000101

>  <SMILES 1 Canonical Smiles>  (22) 
0.0000000932

>  <His-BRPF1 / H4Ac Peptide Interaction (HTRF) IC50 [mol/l] (mean)>  (22) 
0.00000000396

>  <His-BRPF2 / H4Ac Peptide Interaction (HTRF) IC50 [mol/l] (mean)>  (22) 
0.0000000193

>  <GST-TAF1 BD2 HTRF IC50 [mol/l] (mean)>  (22) 
>1.45E-5

>  <GST-TAF1L BD2 HTRF IC50 [mol/l] (mean)>  (22) 
>2.00E-5

$$$$
22
     RDKit          2D

 38 44  0  0  0  0  0  0  0  0999 V2000
   -4.8572    3.8943    0.0000 C   0  0  0  0  0  0  0  0  0  0  0  0
   -4.5502    2.9425    0.0000 N   0  0  0  0  0  0  0  0  0  0  0  0
   -5.1396    2.1347    0.0000 C   0  0  0  0  0  0  0  0  0  0  0  0
   -6.1396    2.1369    0.0000 O   0  0  0  0  0  0  0  0  0  0  0  0
   -4.5534    1.3245    0.0000 N   0  0  0  0  0  0  0  0  0  0  0  0
   -4.8644    0.3743    0.0000 C   0  0  0  0  0  0  0  0  0  0  0  0
   -3.6018    1.6317    0.0000 C   0  0  0  0  0  0  0  0  0  0  0  0
   -2.7368    1.1299    0.0000 C   0  0  0  0  0  0  0  0  0  0  0  0
   -1.8698    1.6283    0.0000 C   0  0  0  0  0  0  0  0  0  0  0  0
   -1.0048    1.1265    0.0000 N   0  0  0  0  0  0  0  0  0  0  0  0
   -0.1378    1.6249    0.0000 C   0  0  0  0  0  0  0  0  0  0  0  0
   -0.1356    2.6247    0.0000 O   0  0  0  0  0  0  0  0  0  0  0  0
    0.7274    1.1231    0.0000 C   0  0  0  0  0  0  0  0  0  0  0  0
    1.5944    1.6213    0.0000 C   0  0  0  0  0  0  0  0  0  0  0  0
    2.4594    1.1197    0.0000 C   0  0  0  0  0  0  0  0  0  0  0  0
    2.4574    0.1197    0.0000 C   0  0  0  0  0  0  0  0  0  0  0  0
    1.5902   -0.3787    0.0000 C   0  0  0  0  0  0  0  0  0  0  0  0
    1.5882   -1.3785    0.0000 C   0  0  0  0  0  0  0  0  0  0  0  0
    0.7212   -1.8769    0.0000 C   0  0  0  0  0  0  0  0  0  0  0  0
   -0.1438   -1.3751    0.0000 C   0  0  0  0  0  0  0  0  0  0  0  0
   -0.1418   -0.3751    0.0000 C   0  0  0  0  0  0  0  0  0  0  0  0
   -1.0068    0.1265    0.0000 C   0  0  0  0  0  0  0  0  0  0  0  0
   -1.8738   -0.3717    0.0000 O   0  0  0  0  0  0  0  0  0  0  0  0
    0.7252    0.1231    0.0000 C   0  0  0  0  0  0  0  0  0  0  0  0
    2.4532   -1.8803    0.0000 N   0  0  0  0  0  0  0  0  0  0  0  0
    2.4512   -2.8803    0.0000 C   0  0  0  0  0  0  0  0  0  0  0  0
    3.3162   -3.3819    0.0000 C   0  0  0  0  0  0  0  0  0  0  0  0
    4.1832   -2.8837    0.0000 N   0  0  0  0  0  0  0  0  0  0  0  0
    5.0484   -3.3855    0.0000 C   0  0  0  0  0  0  0  0  0  0  0  0
    5.0462   -4.3855    0.0000 C   0  0  0  0  0  0  0  0  0  0  0  0
    4.5446   -5.2505    0.0000 C   0  0  0  0  0  0  0  0  0  0  0  0
    5.5446   -5.2525    0.0000 C   0  0  0  0  0  0  0  0  0  0  0  0
    4.1854   -1.8837    0.0000 C   0  0  0  0  0  0  0  0  0  0  0  0
    3.3204   -1.3821    0.0000 C   0  0  0  0  0  0  0  0  0  0  0  0
   -1.8678    2.6283    0.0000 C   0  0  0  0  0  0  0  0  0  0  0  0
   -1.0006    3.1265    0.0000 C   0  0  0  0  0  0  0  0  0  0  0  0
   -2.7328    3.1299    0.0000 C   0  0  0  0  0  0  0  0  0  0  0  0
   -3.5998    2.6317    0.0000 C   0  0  0  0  0  0  0  0  0  0  0  0
  1  2  1  0
  2  3  1  0
  3  4  2  0
  3  5  1  0
  5  6  1  0
  5  7  1  0
  7  8  2  0
  8  9  1  0
  9 10  1  0
 10 11  1  0
 11 12  2  0
 11 13  1  0
 13 14  2  0
 14 15  1  0
 15 16  2  0
 16 17  1  0
 17 18  2  0
 18 19  1  0
 19 20  2  0
 20 21  1  0
 21 22  1  0
 22 23  2  0
 21 24  2  0
 18 25  1  0
 25 26  1  0
 26 27  1  0
 27 28  1  0
 28 29  1  0
 29 30  1  0
 30 31  1  0
 31 32  1  0
 28 33  1  0
 33 34  1  0
  9 35  2  0
 35 36  1  0
 35 37  1  0
 37 38  2  0
 38  2  1  0
 38  7  1  0
 22 10  1  0
 24 13  1  0
 24 17  1  0
 34 25  1  0
 32 30  1  0
M  END
>  <Frequencies>  (23) 
0.00000122

>  <SMILES 1 Canonical Smiles>  (23) 
0.0000000798

>  <His-BRPF1 / H4Ac Peptide Interaction (HTRF) IC50 [mol/l] (mean)>  (23) 
0.0000000144

>  <His-BRPF2 / H4Ac Peptide Interaction (HTRF) IC50 [mol/l] (mean)>  (23) 
0.0000000334

>  <GST-TAF1 BD2 HTRF IC50 [mol/l] (mean)>  (23) 
>0.96E-5

>  <GST-TAF1L BD2 HTRF IC50 [mol/l] (mean)>  (23) 
>1.085E-5

$$$$
23
     RDKit          2D

 36 41  0  0  0  0  0  0  0  0999 V2000
   -1.3594   -6.9571    0.0000 C   0  0  0  0  0  0  0  0  0  0  0  0
   -0.4944   -6.4553    0.0000 O   0  0  0  0  0  0  0  0  0  0  0  0
   -0.4964   -5.4553    0.0000 C   0  0  0  0  0  0  0  0  0  0  0  0
    0.3686   -4.9537    0.0000 C   0  0  0  0  0  0  0  0  0  0  0  0
    0.3666   -3.9537    0.0000 C   0  0  0  0  0  0  0  0  0  0  0  0
   -0.5004   -3.4553    0.0000 N   0  0  0  0  0  0  0  0  0  0  0  0
   -1.3654   -3.9571    0.0000 C   0  0  0  0  0  0  0  0  0  0  0  0
   -1.3634   -4.9571    0.0000 C   0  0  0  0  0  0  0  0  0  0  0  0
   -0.5024   -2.4553    0.0000 C   0  0  0  0  0  0  0  0  0  0  0  0
   -1.3694   -1.9571    0.0000 C   0  0  0  0  0  0  0  0  0  0  0  0
   -1.3714   -0.9571    0.0000 C   0  0  0  0  0  0  0  0  0  0  0  0
   -0.5064   -0.4555    0.0000 C   0  0  0  0  0  0  0  0  0  0  0  0
   -0.5084    0.5445    0.0000 C   0  0  0  0  0  0  0  0  0  0  0  0
   -1.3756    1.0429    0.0000 O   0  0  0  0  0  0  0  0  0  0  0  0
    0.3566    1.0463    0.0000 N   0  0  0  0  0  0  0  0  0  0  0  0
    1.2236    0.5479    0.0000 C   0  0  0  0  0  0  0  0  0  0  0  0
    2.0886    1.0497    0.0000 O   0  0  0  0  0  0  0  0  0  0  0  0
    1.2256   -0.4519    0.0000 C   0  0  0  0  0  0  0  0  0  0  0  0
    2.0926   -0.9503    0.0000 C   0  0  0  0  0  0  0  0  0  0  0  0
    2.0946   -1.9503    0.0000 C   0  0  0  0  0  0  0  0  0  0  0  0
    1.2296   -2.4519    0.0000 C   0  0  0  0  0  0  0  0  0  0  0  0
    0.3626   -1.9537    0.0000 C   0  0  0  0  0  0  0  0  0  0  0  0
    0.3606   -0.9537    0.0000 C   0  0  0  0  0  0  0  0  0  0  0  0
    0.3544    2.0463    0.0000 C   0  0  0  0  0  0  0  0  0  0  0  0
   -0.5126    2.5445    0.0000 C   0  0  0  0  0  0  0  0  0  0  0  0
   -0.5146    3.5445    0.0000 C   0  0  0  0  0  0  0  0  0  0  0  0
   -1.2592    4.2121    0.0000 N   0  0  0  0  0  0  0  0  0  0  0  0
   -2.2366    4.0023    0.0000 C   0  0  0  0  0  0  0  0  0  0  0  0
   -0.8540    5.1263    0.0000 C   0  0  0  0  0  0  0  0  0  0  0  0
   -1.3558    5.9915    0.0000 O   0  0  0  0  0  0  0  0  0  0  0  0
    0.1404    5.0239    0.0000 N   0  0  0  0  0  0  0  0  0  0  0  0
    0.8082    5.7683    0.0000 C   0  0  0  0  0  0  0  0  0  0  0  0
    0.3504    4.0461    0.0000 C   0  0  0  0  0  0  0  0  0  0  0  0
    1.2174    3.5479    0.0000 C   0  0  0  0  0  0  0  0  0  0  0  0
    1.2194    2.5479    0.0000 C   0  0  0  0  0  0  0  0  0  0  0  0
    2.0866    2.0497    0.0000 C   0  0  0  0  0  0  0  0  0  0  0  0
  1  2  1  0
  2  3  1  0
  3  4  1  0
  4  5  1  0
  5  6  1  0
  6  7  1  0
  7  8  1  0
  6  9  1  0
  9 10  2  0
 10 11  1  0
 11 12  2  0
 12 13  1  0
 13 14  2  0
 13 15  1  0
 15 16  1  0
 16 17  2  0
 16 18  1  0
 18 19  1  0
 19 20  2  0
 20 21  1  0
 21 22  2  0
 22 23  1  0
 15 24  1  0
 24 25  2  0
 25 26  1  0
 26 27  1  0
 27 28  1  0
 27 29  1  0
 29 30  2  0
 29 31  1  0
 31 32  1  0
 31 33  1  0
 33 34  1  0
 34 35  2  0
 35 36  1  0
  8  3  1  0
 22  9  1  0
 23 12  1  0
 23 18  2  0
 35 24  1  0
 33 26  2  0
M  END
>  <Frequencies>  (24) 
0.00000482

>  <SMILES 1 Canonical Smiles>  (24) 
0.0000000526

>  <His-BRPF1 / H4Ac Peptide Interaction (HTRF) IC50 [mol/l] (mean)>  (24) 
0.0000000146

>  <His-BRPF2 / H4Ac Peptide Interaction (HTRF) IC50 [mol/l] (mean)>  (24) 
0.0000000486

>  <GST-TAF1 BD2 HTRF IC50 [mol/l] (mean)>  (24) 
>1.40E-5

>  <GST-TAF1L BD2 HTRF IC50 [mol/l] (mean)>  (24) 
>2.00E-5

$$$$
24
     RDKit          2D

 34 39  0  0  0  0  0  0  0  0999 V2000
   -4.2635    3.3567    0.0000 C   0  0  0  0  0  0  0  0  0  0  0  0
   -3.9565    2.4049    0.0000 N   0  0  0  0  0  0  0  0  0  0  0  0
   -4.5459    1.5973    0.0000 C   0  0  0  0  0  0  0  0  0  0  0  0
   -5.5459    1.5993    0.0000 O   0  0  0  0  0  0  0  0  0  0  0  0
   -3.9597    0.7871    0.0000 N   0  0  0  0  0  0  0  0  0  0  0  0
   -4.2707   -0.1633    0.0000 C   0  0  0  0  0  0  0  0  0  0  0  0
   -3.0081    1.0943    0.0000 C   0  0  0  0  0  0  0  0  0  0  0  0
   -2.1431    0.5925    0.0000 C   0  0  0  0  0  0  0  0  0  0  0  0
   -1.2761    1.0909    0.0000 C   0  0  0  0  0  0  0  0  0  0  0  0
   -0.4111    0.5891    0.0000 N   0  0  0  0  0  0  0  0  0  0  0  0
    0.4559    1.0873    0.0000 C   0  0  0  0  0  0  0  0  0  0  0  0
    0.4579    2.0873    0.0000 O   0  0  0  0  0  0  0  0  0  0  0  0
    1.3209    0.5857    0.0000 C   0  0  0  0  0  0  0  0  0  0  0  0
    2.1879    1.0839    0.0000 C   0  0  0  0  0  0  0  0  0  0  0  0
    3.0529    0.5821    0.0000 C   0  0  0  0  0  0  0  0  0  0  0  0
    3.0509   -0.4177    0.0000 C   0  0  0  0  0  0  0  0  0  0  0  0
    2.1839   -0.9161    0.0000 C   0  0  0  0  0  0  0  0  0  0  0  0
    2.1819   -1.9161    0.0000 C   0  0  0  0  0  0  0  0  0  0  0  0
    1.3149   -2.4143    0.0000 C   0  0  0  0  0  0  0  0  0  0  0  0
    0.4499   -1.9125    0.0000 C   0  0  0  0  0  0  0  0  0  0  0  0
    0.4519   -0.9127    0.0000 C   0  0  0  0  0  0  0  0  0  0  0  0
   -0.4131   -0.4109    0.0000 C   0  0  0  0  0  0  0  0  0  0  0  0
   -1.2801   -0.9091    0.0000 O   0  0  0  0  0  0  0  0  0  0  0  0
    1.3189   -0.4143    0.0000 C   0  0  0  0  0  0  0  0  0  0  0  0
    3.0469   -2.4177    0.0000 N   0  0  0  0  0  0  0  0  0  0  0  0
    3.0449   -3.4177    0.0000 C   0  0  0  0  0  0  0  0  0  0  0  0
    3.9099   -3.9195    0.0000 C   0  0  0  0  0  0  0  0  0  0  0  0
    4.7769   -3.4211    0.0000 C   0  0  0  0  0  0  0  0  0  0  0  0
    4.7789   -2.4211    0.0000 C   0  0  0  0  0  0  0  0  0  0  0  0
    3.9139   -1.9195    0.0000 C   0  0  0  0  0  0  0  0  0  0  0  0
   -1.2741    2.0907    0.0000 C   0  0  0  0  0  0  0  0  0  0  0  0
   -0.4071    2.5891    0.0000 C   0  0  0  0  0  0  0  0  0  0  0  0
   -2.1391    2.5925    0.0000 C   0  0  0  0  0  0  0  0  0  0  0  0
   -3.0061    2.0943    0.0000 C   0  0  0  0  0  0  0  0  0  0  0  0
  1  2  1  0
  2  3  1  0
  3  4  2  0
  3  5  1  0
  5  6  1  0
  5  7  1  0
  7  8  2  0
  8  9  1  0
  9 10  1  0
 10 11  1  0
 11 12  2  0
 11 13  1  0
 13 14  2  0
 14 15  1  0
 15 16  2  0
 16 17  1  0
 17 18  2  0
 18 19  1  0
 19 20  2  0
 20 21  1  0
 21 22  1  0
 22 23  2  0
 21 24  2  0
 18 25  1  0
 25 26  1  0
 26 27  1  0
 27 28  1  0
 28 29  1  0
 29 30  1  0
  9 31  2  0
 31 32  1  0
 31 33  1  0
 33 34  2  0
 34  2  1  0
 34  7  1  0
 22 10  1  0
 24 13  1  0
 24 17  1  0
 30 25  1  0
M  END
>  <Frequencies>  (25) 
0.0000133

>  <SMILES 1 Canonical Smiles>  (25) 
0.0000000954

>  <His-BRPF1 / H4Ac Peptide Interaction (HTRF) IC50 [mol/l] (mean)>  (25) 
0.00000000676

>  <His-BRPF2 / H4Ac Peptide Interaction (HTRF) IC50 [mol/l] (mean)>  (25) 
0.0000000624

>  <GST-TAF1 BD2 HTRF IC50 [mol/l] (mean)>  (25) 
0.0000145

>  <GST-TAF1L BD2 HTRF IC50 [mol/l] (mean)>  (25) 
>2.00E-5

$$$$
25
     RDKit          2D

 33 38  0  0  0  0  0  0  0  0999 V2000
   -4.1255    3.2568    0.0000 C   0  0  0  0  0  0  0  0  0  0  0  0
   -3.8183    2.3052    0.0000 N   0  0  0  0  0  0  0  0  0  0  0  0
   -4.4077    1.4974    0.0000 C   0  0  0  0  0  0  0  0  0  0  0  0
   -5.4077    1.4994    0.0000 O   0  0  0  0  0  0  0  0  0  0  0  0
   -3.8217    0.6872    0.0000 N   0  0  0  0  0  0  0  0  0  0  0  0
   -4.1325   -0.2632    0.0000 C   0  0  0  0  0  0  0  0  0  0  0  0
   -2.8699    0.9944    0.0000 C   0  0  0  0  0  0  0  0  0  0  0  0
   -2.0049    0.4926    0.0000 C   0  0  0  0  0  0  0  0  0  0  0  0
   -1.1379    0.9910    0.0000 C   0  0  0  0  0  0  0  0  0  0  0  0
   -0.2729    0.4892    0.0000 N   0  0  0  0  0  0  0  0  0  0  0  0
    0.5941    0.9874    0.0000 C   0  0  0  0  0  0  0  0  0  0  0  0
    0.5961    1.9874    0.0000 O   0  0  0  0  0  0  0  0  0  0  0  0
    1.4591    0.4858    0.0000 C   0  0  0  0  0  0  0  0  0  0  0  0
    2.3261    0.9840    0.0000 C   0  0  0  0  0  0  0  0  0  0  0  0
    3.1911    0.4822    0.0000 C   0  0  0  0  0  0  0  0  0  0  0  0
    3.1891   -0.5176    0.0000 C   0  0  0  0  0  0  0  0  0  0  0  0
    2.3221   -1.0160    0.0000 C   0  0  0  0  0  0  0  0  0  0  0  0
    2.3201   -2.0160    0.0000 C   0  0  0  0  0  0  0  0  0  0  0  0
    1.4531   -2.5142    0.0000 C   0  0  0  0  0  0  0  0  0  0  0  0
    0.5881   -2.0124    0.0000 C   0  0  0  0  0  0  0  0  0  0  0  0
    0.5901   -1.0124    0.0000 C   0  0  0  0  0  0  0  0  0  0  0  0
   -0.2749   -0.5108    0.0000 C   0  0  0  0  0  0  0  0  0  0  0  0
   -1.1419   -1.0090    0.0000 O   0  0  0  0  0  0  0  0  0  0  0  0
    1.4571   -0.5142    0.0000 C   0  0  0  0  0  0  0  0  0  0  0  0
    3.1851   -2.5176    0.0000 N   0  0  0  0  0  0  0  0  0  0  0  0
    3.2875   -3.5124    0.0000 C   0  0  0  0  0  0  0  0  0  0  0  0
    4.2653   -3.7222    0.0000 C   0  0  0  0  0  0  0  0  0  0  0  0
    4.7669   -2.8572    0.0000 C   0  0  0  0  0  0  0  0  0  0  0  0
    4.0995   -2.1128    0.0000 C   0  0  0  0  0  0  0  0  0  0  0  0
   -1.1359    1.9908    0.0000 C   0  0  0  0  0  0  0  0  0  0  0  0
   -0.2689    2.4892    0.0000 C   0  0  0  0  0  0  0  0  0  0  0  0
   -2.0009    2.4926    0.0000 C   0  0  0  0  0  0  0  0  0  0  0  0
   -2.8679    1.9944    0.0000 C   0  0  0  0  0  0  0  0  0  0  0  0
  1  2  1  0
  2  3  1  0
  3  4  2  0
  3  5  1  0
  5  6  1  0
  5  7  1  0
  7  8  2  0
  8  9  1  0
  9 10  1  0
 10 11  1  0
 11 12  2  0
 11 13  1  0
 13 14  2  0
 14 15  1  0
 15 16  2  0
 16 17  1  0
 17 18  2  0
 18 19  1  0
 19 20  2  0
 20 21  1  0
 21 22  1  0
 22 23  2  0
 21 24  2  0
 18 25  1  0
 25 26  1  0
 26 27  1  0
 27 28  1  0
 28 29  1  0
  9 30  2  0
 30 31  1  0
 30 32  1  0
 32 33  2  0
 33  2  1  0
 33  7  1  0
 22 10  1  0
 24 13  1  0
 24 17  1  0
 29 25  1  0
M  END
>  <Frequencies>  (26) 
0.00000454

>  <SMILES 1 Canonical Smiles>  (26) 
0.000000126

>  <His-BRPF1 / H4Ac Peptide Interaction (HTRF) IC50 [mol/l] (mean)>  (26) 


>  <His-BRPF2 / H4Ac Peptide Interaction (HTRF) IC50 [mol/l] (mean)>  (26) 
0.0000000971

>  <GST-TAF1 BD2 HTRF IC50 [mol/l] (mean)>  (26) 
0.0000155

>  <GST-TAF1L BD2 HTRF IC50 [mol/l] (mean)>  (26) 
>2.00E-5

$$$$
26
     RDKit          2D

 32 36  0  0  0  0  0  0  0  0999 V2000
   -2.2668   -6.1262    0.0000 C   0  0  0  0  0  0  0  0  0  0  0  0
   -1.3962   -5.6336    0.0000 C   0  0  0  0  0  0  0  0  0  0  0  0
   -1.3872   -4.6332    0.0000 C   0  0  0  0  0  0  0  0  0  0  0  0
   -0.5160   -4.1414    0.0000 N   0  0  0  0  0  0  0  0  0  0  0  0
   -0.5050   -3.1510    0.0000 C   0  0  0  0  0  0  0  0  0  0  0  0
   -1.3742   -2.6226    0.0000 C   0  0  0  0  0  0  0  0  0  0  0  0
   -1.3802   -1.6356    0.0000 C   0  0  0  0  0  0  0  0  0  0  0  0
   -0.4984   -1.1566    0.0000 C   0  0  0  0  0  0  0  0  0  0  0  0
   -0.5030   -0.1422    0.0000 C   0  0  0  0  0  0  0  0  0  0  0  0
   -1.3592    0.3550    0.0000 O   0  0  0  0  0  0  0  0  0  0  0  0
    0.3670    0.3374    0.0000 N   0  0  0  0  0  0  0  0  0  0  0  0
    1.2472   -0.1620    0.0000 C   0  0  0  0  0  0  0  0  0  0  0  0
    2.1062    0.3298    0.0000 O   0  0  0  0  0  0  0  0  0  0  0  0
    1.2368   -1.1530    0.0000 C   0  0  0  0  0  0  0  0  0  0  0  0
    2.0898   -1.6596    0.0000 C   0  0  0  0  0  0  0  0  0  0  0  0
    2.0920   -2.6682    0.0000 C   0  0  0  0  0  0  0  0  0  0  0  0
    1.2100   -3.1592    0.0000 C   0  0  0  0  0  0  0  0  0  0  0  0
    0.3506   -2.6616    0.0000 C   0  0  0  0  0  0  0  0  0  0  0  0
    0.3746   -1.6612    0.0000 C   0  0  0  0  0  0  0  0  0  0  0  0
    0.3896    1.3466    0.0000 C   0  0  0  0  0  0  0  0  0  0  0  0
   -0.4630    1.8212    0.0000 C   0  0  0  0  0  0  0  0  0  0  0  0
   -0.4506    2.8386    0.0000 C   0  0  0  0  0  0  0  0  0  0  0  0
   -1.1878    3.5120    0.0000 N   0  0  0  0  0  0  0  0  0  0  0  0
   -2.1748    3.2972    0.0000 C   0  0  0  0  0  0  0  0  0  0  0  0
   -0.8008    4.4356    0.0000 C   0  0  0  0  0  0  0  0  0  0  0  0
   -1.2998    5.2906    0.0000 O   0  0  0  0  0  0  0  0  0  0  0  0
    0.1980    4.3168    0.0000 N   0  0  0  0  0  0  0  0  0  0  0  0
    0.8660    5.0730    0.0000 C   0  0  0  0  0  0  0  0  0  0  0  0
    0.4114    3.3660    0.0000 C   0  0  0  0  0  0  0  0  0  0  0  0
    1.2452    2.8640    0.0000 C   0  0  0  0  0  0  0  0  0  0  0  0
    1.2608    1.8376    0.0000 C   0  0  0  0  0  0  0  0  0  0  0  0
    2.1192    1.3448    0.0000 C   0  0  0  0  0  0  0  0  0  0  0  0
  1  2  1  0
  2  3  1  0
  3  4  1  0
  4  5  1  0
  5  6  2  0
  6  7  1  0
  7  8  2  0
  8  9  1  0
  9 10  2  0
  9 11  1  0
 11 12  1  0
 12 13  2  0
 12 14  1  0
 14 15  1  0
 15 16  2  0
 16 17  1  0
 17 18  2  0
 18 19  1  0
 11 20  1  0
 20 21  2  0
 21 22  1  0
 22 23  1  0
 23 24  1  0
 23 25  1  0
 25 26  2  0
 25 27  1  0
 27 28  1  0
 27 29  1  0
 29 30  1  0
 30 31  2  0
 31 32  1  0
 18  5  1  0
 19  8  1  0
 19 14  2  0
 31 20  1  0
 29 22  2  0
M  END
>  <Frequencies>  (27) 
0.0000142

>  <SMILES 1 Canonical Smiles>  (27) 
0.000000121

>  <His-BRPF1 / H4Ac Peptide Interaction (HTRF) IC50 [mol/l] (mean)>  (27) 
0.00000000292

>  <His-BRPF2 / H4Ac Peptide Interaction (HTRF) IC50 [mol/l] (mean)>  (27) 
0.0000000223

>  <GST-TAF1 BD2 HTRF IC50 [mol/l] (mean)>  (27) 
>1.39E-5

>  <GST-TAF1L BD2 HTRF IC50 [mol/l] (mean)>  (27) 
>2.00E-5

$$$$
27
     RDKit          2D

 39 44  0  0  0  0  0  0  0  0999 V2000
    2.1916   -7.8011    0.0000 C   0  0  0  0  0  0  0  0  0  0  0  0
    1.3202   -7.3103    0.0000 N   0  0  0  0  0  0  0  0  0  0  0  0
    0.4596   -7.8189    0.0000 C   0  0  0  0  0  0  0  0  0  0  0  0
    1.3102   -6.3109    0.0000 C   0  0  0  0  0  0  0  0  0  0  0  0
    0.4402   -5.8177    0.0000 C   0  0  0  0  0  0  0  0  0  0  0  0
    0.4302   -4.8269    0.0000 N   0  0  0  0  0  0  0  0  0  0  0  0
   -0.4192   -4.3105    0.0000 C   0  0  0  0  0  0  0  0  0  0  0  0
   -0.4562   -3.3163    0.0000 C   0  0  0  0  0  0  0  0  0  0  0  0
    0.4292   -2.7963    0.0000 N   0  0  0  0  0  0  0  0  0  0  0  0
    1.2804   -3.3127    0.0000 C   0  0  0  0  0  0  0  0  0  0  0  0
    1.3168   -4.3071    0.0000 C   0  0  0  0  0  0  0  0  0  0  0  0
    0.4090   -1.8153    0.0000 C   0  0  0  0  0  0  0  0  0  0  0  0
    1.2762   -1.2877    0.0000 C   0  0  0  0  0  0  0  0  0  0  0  0
    1.2816   -0.3007    0.0000 C   0  0  0  0  0  0  0  0  0  0  0  0
    0.3996    0.1785    0.0000 C   0  0  0  0  0  0  0  0  0  0  0  0
    0.4044    1.1935    0.0000 C   0  0  0  0  0  0  0  0  0  0  0  0
    1.2608    1.6903    0.0000 O   0  0  0  0  0  0  0  0  0  0  0  0
   -0.4652    1.6731    0.0000 N   0  0  0  0  0  0  0  0  0  0  0  0
   -1.3446    1.1739    0.0000 C   0  0  0  0  0  0  0  0  0  0  0  0
   -2.2036    1.6657    0.0000 O   0  0  0  0  0  0  0  0  0  0  0  0
   -1.3342    0.1825    0.0000 C   0  0  0  0  0  0  0  0  0  0  0  0
   -2.1874   -0.3241    0.0000 C   0  0  0  0  0  0  0  0  0  0  0  0
   -2.1894   -1.3327    0.0000 C   0  0  0  0  0  0  0  0  0  0  0  0
   -1.3076   -1.8235    0.0000 C   0  0  0  0  0  0  0  0  0  0  0  0
   -0.4482   -1.3257    0.0000 C   0  0  0  0  0  0  0  0  0  0  0  0
   -0.4722   -0.3253    0.0000 C   0  0  0  0  0  0  0  0  0  0  0  0
   -0.4872    2.6821    0.0000 C   0  0  0  0  0  0  0  0  0  0  0  0
    0.3654    3.1567    0.0000 C   0  0  0  0  0  0  0  0  0  0  0  0
    0.3530    4.1743    0.0000 C   0  0  0  0  0  0  0  0  0  0  0  0
    1.0902    4.8475    0.0000 N   0  0  0  0  0  0  0  0  0  0  0  0
    2.0772    4.6329    0.0000 C   0  0  0  0  0  0  0  0  0  0  0  0
    0.7032    5.7713    0.0000 C   0  0  0  0  0  0  0  0  0  0  0  0
    1.2022    6.6263    0.0000 O   0  0  0  0  0  0  0  0  0  0  0  0
   -0.2956    5.6523    0.0000 N   0  0  0  0  0  0  0  0  0  0  0  0
   -0.9636    6.4087    0.0000 C   0  0  0  0  0  0  0  0  0  0  0  0
   -0.5088    4.7017    0.0000 C   0  0  0  0  0  0  0  0  0  0  0  0
   -1.3428    4.1997    0.0000 C   0  0  0  0  0  0  0  0  0  0  0  0
   -1.3584    3.1731    0.0000 C   0  0  0  0  0  0  0  0  0  0  0  0
   -2.2168    2.6805    0.0000 C   0  0  0  0  0  0  0  0  0  0  0  0
  1  2  1  0
  2  3  1  0
  2  4  1  0
  4  5  1  0
  5  6  1  0
  6  7  1  0
  7  8  1  0
  8  9  1  0
  9 10  1  0
 10 11  1  0
  9 12  1  0
 12 13  2  0
 13 14  1  0
 14 15  2  0
 15 16  1  0
 16 17  2  0
 16 18  1  0
 18 19  1  0
 19 20  2  0
 19 21  1  0
 21 22  1  0
 22 23  2  0
 23 24  1  0
 24 25  2  0
 25 26  1  0
 18 27  1  0
 27 28  2  0
 28 29  1  0
 29 30  1  0
 30 31  1  0
 30 32  1  0
 32 33  2  0
 32 34  1  0
 34 35  1  0
 34 36  1  0
 36 37  1  0
 37 38  2  0
 38 39  1  0
 11  6  1  0
 25 12  1  0
 26 15  1  0
 26 21  2  0
 38 27  1  0
 36 29  2  0
M  END
>  <Frequencies>  (28) 
0.00000127

>  <SMILES 1 Canonical Smiles>  (28) 
0.0000000741

>  <His-BRPF1 / H4Ac Peptide Interaction (HTRF) IC50 [mol/l] (mean)>  (28) 
0.0000000246

>  <His-BRPF2 / H4Ac Peptide Interaction (HTRF) IC50 [mol/l] (mean)>  (28) 
0.0000000987

>  <GST-TAF1 BD2 HTRF IC50 [mol/l] (mean)>  (28) 
>1.30E-5

>  <GST-TAF1L BD2 HTRF IC50 [mol/l] (mean)>  (28) 
>2.00E-5

$$$$
28
     RDKit          2D

 37 42  0  0  0  0  0  0  0  0999 V2000
    0.6786   -3.8077    0.0000 C   0  0  0  0  0  0  0  0  0  0  0  0
   -0.1816   -3.2977    0.0000 N   0  0  0  0  0  0  0  0  0  0  0  0
   -1.0558   -3.7903    0.0000 C   0  0  0  0  0  0  0  0  0  0  0  0
   -1.0666   -4.7933    0.0000 C   0  0  0  0  0  0  0  0  0  0  0  0
   -1.9300   -5.2841    0.0000 N   0  0  0  0  0  0  0  0  0  0  0  0
   -2.0458   -6.2787    0.0000 C   0  0  0  0  0  0  0  0  0  0  0  0
   -3.0254   -6.4837    0.0000 C   0  0  0  0  0  0  0  0  0  0  0  0
   -3.5174   -5.6081    0.0000 C   0  0  0  0  0  0  0  0  0  0  0  0
   -2.8462   -4.8735    0.0000 C   0  0  0  0  0  0  0  0  0  0  0  0
   -0.1696   -2.3049    0.0000 C   0  0  0  0  0  0  0  0  0  0  0  0
   -1.0370   -1.7779    0.0000 C   0  0  0  0  0  0  0  0  0  0  0  0
   -1.0426   -0.7911    0.0000 C   0  0  0  0  0  0  0  0  0  0  0  0
   -0.1606   -0.3115    0.0000 C   0  0  0  0  0  0  0  0  0  0  0  0
   -0.1654    0.7035    0.0000 C   0  0  0  0  0  0  0  0  0  0  0  0
   -1.0218    1.2003    0.0000 O   0  0  0  0  0  0  0  0  0  0  0  0
    0.7042    1.1833    0.0000 N   0  0  0  0  0  0  0  0  0  0  0  0
    1.5834    0.6843    0.0000 C   0  0  0  0  0  0  0  0  0  0  0  0
    2.4422    1.1763    0.0000 O   0  0  0  0  0  0  0  0  0  0  0  0
    1.5730   -0.3073    0.0000 C   0  0  0  0  0  0  0  0  0  0  0  0
    2.4262   -0.8137    0.0000 C   0  0  0  0  0  0  0  0  0  0  0  0
    2.4284   -1.8225    0.0000 C   0  0  0  0  0  0  0  0  0  0  0  0
    1.5464   -2.3131    0.0000 C   0  0  0  0  0  0  0  0  0  0  0  0
    0.6870   -1.8155    0.0000 C   0  0  0  0  0  0  0  0  0  0  0  0
    0.7110   -0.8151    0.0000 C   0  0  0  0  0  0  0  0  0  0  0  0
    0.7260    2.1925    0.0000 C   0  0  0  0  0  0  0  0  0  0  0  0
   -0.1266    2.6671    0.0000 C   0  0  0  0  0  0  0  0  0  0  0  0
   -0.1142    3.6845    0.0000 C   0  0  0  0  0  0  0  0  0  0  0  0
   -0.8514    4.3577    0.0000 N   0  0  0  0  0  0  0  0  0  0  0  0
   -1.8384    4.1431    0.0000 C   0  0  0  0  0  0  0  0  0  0  0  0
   -0.4644    5.2815    0.0000 C   0  0  0  0  0  0  0  0  0  0  0  0
   -0.9634    6.1365    0.0000 O   0  0  0  0  0  0  0  0  0  0  0  0
    0.5344    5.1627    0.0000 N   0  0  0  0  0  0  0  0  0  0  0  0
    1.2022    5.9189    0.0000 C   0  0  0  0  0  0  0  0  0  0  0  0
    0.7476    4.2119    0.0000 C   0  0  0  0  0  0  0  0  0  0  0  0
    1.5816    3.7099    0.0000 C   0  0  0  0  0  0  0  0  0  0  0  0
    1.5972    2.6835    0.0000 C   0  0  0  0  0  0  0  0  0  0  0  0
    2.4558    2.1909    0.0000 C   0  0  0  0  0  0  0  0  0  0  0  0
  1  2  1  0
  2  3  1  0
  3  4  1  0
  4  5  1  0
  5  6  1  0
  6  7  1  0
  7  8  1  0
  8  9  1  0
  2 10  1  0
 10 11  2  0
 11 12  1  0
 12 13  2  0
 13 14  1  0
 14 15  2  0
 14 16  1  0
 16 17  1  0
 17 18  2  0
 17 19  1  0
 19 20  1  0
 20 21  2  0
 21 22  1  0
 22 23  2  0
 23 24  1  0
 16 25  1  0
 25 26  2  0
 26 27  1  0
 27 28  1  0
 28 29  1  0
 28 30  1  0
 30 31  2  0
 30 32  1  0
 32 33  1  0
 32 34  1  0
 34 35  1  0
 35 36  2  0
 36 37  1  0
  9  5  1  0
 23 10  1  0
 24 13  1  0
 24 19  2  0
 36 25  1  0
 34 27  2  0
M  END
>  <Frequencies>  (29) 
0.00000131

>  <SMILES 1 Canonical Smiles>  (29) 
0.0000000835

>  <His-BRPF1 / H4Ac Peptide Interaction (HTRF) IC50 [mol/l] (mean)>  (29) 
0.00000000627

>  <His-BRPF2 / H4Ac Peptide Interaction (HTRF) IC50 [mol/l] (mean)>  (29) 
0.0000000327

>  <GST-TAF1 BD2 HTRF IC50 [mol/l] (mean)>  (29) 
>1.15E-5

>  <GST-TAF1L BD2 HTRF IC50 [mol/l] (mean)>  (29) 
>2.00E-5

$$$$
29
     RDKit          2D

 33 37  0  0  0  0  0  0  0  0999 V2000
    0.9349    5.2890    0.0000 C   0  0  0  0  0  0  0  0  0  0  0  0
    0.2671    4.5326    0.0000 N   0  0  0  0  0  0  0  0  0  0  0  0
   -0.7319    4.6516    0.0000 C   0  0  0  0  0  0  0  0  0  0  0  0
   -1.2307    5.5066    0.0000 O   0  0  0  0  0  0  0  0  0  0  0  0
   -1.1187    3.7278    0.0000 N   0  0  0  0  0  0  0  0  0  0  0  0
   -2.1057    3.5132    0.0000 C   0  0  0  0  0  0  0  0  0  0  0  0
   -0.3815    3.0546    0.0000 C   0  0  0  0  0  0  0  0  0  0  0  0
   -0.3939    2.0372    0.0000 C   0  0  0  0  0  0  0  0  0  0  0  0
    0.4587    1.5624    0.0000 C   0  0  0  0  0  0  0  0  0  0  0  0
    0.4353    0.5532    0.0000 N   0  0  0  0  0  0  0  0  0  0  0  0
    1.3167    0.0532    0.0000 C   0  0  0  0  0  0  0  0  0  0  0  0
    2.1757    0.5450    0.0000 O   0  0  0  0  0  0  0  0  0  0  0  0
    1.3061   -0.9370    0.0000 C   0  0  0  0  0  0  0  0  0  0  0  0
    2.1587   -1.4434    0.0000 C   0  0  0  0  0  0  0  0  0  0  0  0
    2.1611   -2.4522    0.0000 C   0  0  0  0  0  0  0  0  0  0  0  0
    1.2789   -2.9432    0.0000 C   0  0  0  0  0  0  0  0  0  0  0  0
    0.4197   -2.4462    0.0000 C   0  0  0  0  0  0  0  0  0  0  0  0
   -0.4351   -2.9350    0.0000 C   0  0  0  0  0  0  0  0  0  0  0  0
   -0.4463   -3.9258    0.0000 C   0  0  0  0  0  0  0  0  0  0  0  0
   -1.3175   -4.4178    0.0000 C   0  0  0  0  0  0  0  0  0  0  0  0
   -1.3267   -5.4186    0.0000 C   0  0  0  0  0  0  0  0  0  0  0  0
   -2.1971   -5.9114    0.0000 C   0  0  0  0  0  0  0  0  0  0  0  0
   -2.2057   -6.9116    0.0000 O   0  0  0  0  0  0  0  0  0  0  0  0
   -1.3061   -2.4050    0.0000 C   0  0  0  0  0  0  0  0  0  0  0  0
   -1.3131   -1.4178    0.0000 C   0  0  0  0  0  0  0  0  0  0  0  0
   -0.4313   -0.9396    0.0000 C   0  0  0  0  0  0  0  0  0  0  0  0
   -0.4357    0.0742    0.0000 C   0  0  0  0  0  0  0  0  0  0  0  0
   -1.2917    0.5718    0.0000 O   0  0  0  0  0  0  0  0  0  0  0  0
    0.4435   -1.4452    0.0000 C   0  0  0  0  0  0  0  0  0  0  0  0
    1.3297    2.0534    0.0000 C   0  0  0  0  0  0  0  0  0  0  0  0
    2.1883    1.5608    0.0000 C   0  0  0  0  0  0  0  0  0  0  0  0
    1.3143    3.0798    0.0000 C   0  0  0  0  0  0  0  0  0  0  0  0
    0.4803    3.5820    0.0000 C   0  0  0  0  0  0  0  0  0  0  0  0
  1  2  1  0
  2  3  1  0
  3  4  2  0
  3  5  1  0
  5  6  1  0
  5  7  1  0
  7  8  2  0
  8  9  1  0
  9 10  1  0
 10 11  1  0
 11 12  2  0
 11 13  1  0
 13 14  2  0
 14 15  1  0
 15 16  2  0
 16 17  1  0
 17 18  2  0
 18 19  1  0
 19 20  1  0
 20 21  1  0
 21 22  1  0
 22 23  1  0
 18 24  1  0
 24 25  2  0
 25 26  1  0
 26 27  1  0
 27 28  2  0
 26 29  2  0
  9 30  2  0
 30 31  1  0
 30 32  1  0
 32 33  2  0
 33  2  1  0
 33  7  1  0
 27 10  1  0
 29 13  1  0
 29 17  1  0
M  END
>  <Frequencies>  (30) 
0.0000023

>  <SMILES 1 Canonical Smiles>  (30) 
0.0000000696

>  <His-BRPF1 / H4Ac Peptide Interaction (HTRF) IC50 [mol/l] (mean)>  (30) 
0.00000000668

>  <His-BRPF2 / H4Ac Peptide Interaction (HTRF) IC50 [mol/l] (mean)>  (30) 
0.0000000437

>  <GST-TAF1 BD2 HTRF IC50 [mol/l] (mean)>  (30) 
>1.19E-5

>  <GST-TAF1L BD2 HTRF IC50 [mol/l] (mean)>  (30) 
>2.00E-5

$$$$
30
     RDKit          2D

 14 15  0  0  0  0  0  0  0  0999 V2000
   -1.3938    1.7612    0.0000 C   0  0  0  0  0  0  0  0  0  0  0  0
   -1.0856    0.8098    0.0000 N   0  0  0  0  0  0  0  0  0  0  0  0
   -1.6740    0.0014    0.0000 C   0  0  0  0  0  0  0  0  0  0  0  0
   -2.6740    0.0022    0.0000 O   0  0  0  0  0  0  0  0  0  0  0  0
   -1.0868   -0.8082    0.0000 N   0  0  0  0  0  0  0  0  0  0  0  0
   -1.3966   -1.7588    0.0000 C   0  0  0  0  0  0  0  0  0  0  0  0
   -0.1356   -0.4998    0.0000 C   0  0  0  0  0  0  0  0  0  0  0  0
    0.7300   -1.0006    0.0000 C   0  0  0  0  0  0  0  0  0  0  0  0
    1.5964   -0.5012    0.0000 C   0  0  0  0  0  0  0  0  0  0  0  0
    2.4620   -1.0020    0.0000 N   0  0  0  0  0  0  0  0  0  0  0  0
    1.5972    0.4988    0.0000 C   0  0  0  0  0  0  0  0  0  0  0  0
    2.4636    0.9980    0.0000 C   0  0  0  0  0  0  0  0  0  0  0  0
    0.7316    0.9994    0.0000 C   0  0  0  0  0  0  0  0  0  0  0  0
   -0.1348    0.5002    0.0000 C   0  0  0  0  0  0  0  0  0  0  0  0
  1  2  1  0
  2  3  1  0
  3  4  2  0
  3  5  1  0
  5  6  1  0
  5  7  1  0
  7  8  2  0
  8  9  1  0
  9 10  1  0
  9 11  2  0
 11 12  1  0
 11 13  1  0
 13 14  2  0
 14  2  1  0
 14  7  1  0
M  END
>  <Frequencies>  (31) 
0.000000157

>  <SMILES 1 Canonical Smiles>  (31) 
0.00000582

>  <His-BRPF1 / H4Ac Peptide Interaction (HTRF) IC50 [mol/l] (mean)>  (31) 


>  <His-BRPF2 / H4Ac Peptide Interaction (HTRF) IC50 [mol/l] (mean)>  (31) 


>  <GST-TAF1 BD2 HTRF IC50 [mol/l] (mean)>  (31) 
>3.33E-5

>  <GST-TAF1L BD2 HTRF IC50 [mol/l] (mean)>  (31) 
>1.48E-5

$$$$
31
     RDKit          2D

 30 34  0  0  0  0  0  0  0  0999 V2000
    0.8633    5.2284    0.0000 C   0  0  0  0  0  0  0  0  0  0  0  0
    0.1959    4.4718    0.0000 N   0  0  0  0  0  0  0  0  0  0  0  0
   -0.8027    4.5902    0.0000 C   0  0  0  0  0  0  0  0  0  0  0  0
   -1.3021    5.4448    0.0000 O   0  0  0  0  0  0  0  0  0  0  0  0
   -1.1895    3.6656    0.0000 N   0  0  0  0  0  0  0  0  0  0  0  0
   -0.4525    2.9930    0.0000 C   0  0  0  0  0  0  0  0  0  0  0  0
   -0.4645    1.9756    0.0000 C   0  0  0  0  0  0  0  0  0  0  0  0
    0.3881    1.5012    0.0000 C   0  0  0  0  0  0  0  0  0  0  0  0
    1.2591    1.9924    0.0000 C   0  0  0  0  0  0  0  0  0  0  0  0
    1.2435    3.0190    0.0000 C   0  0  0  0  0  0  0  0  0  0  0  0
    0.4095    3.5208    0.0000 C   0  0  0  0  0  0  0  0  0  0  0  0
    0.3647    0.4918    0.0000 N   0  0  0  0  0  0  0  0  0  0  0  0
    1.2461   -0.0082    0.0000 C   0  0  0  0  0  0  0  0  0  0  0  0
    2.1051    0.4836    0.0000 O   0  0  0  0  0  0  0  0  0  0  0  0
    1.2353   -0.9984    0.0000 C   0  0  0  0  0  0  0  0  0  0  0  0
    2.0881   -1.5048    0.0000 C   0  0  0  0  0  0  0  0  0  0  0  0
    2.0905   -2.5136    0.0000 C   0  0  0  0  0  0  0  0  0  0  0  0
    1.2083   -3.0046    0.0000 C   0  0  0  0  0  0  0  0  0  0  0  0
    0.3491   -2.5074    0.0000 C   0  0  0  0  0  0  0  0  0  0  0  0
   -0.5057   -2.9964    0.0000 C   0  0  0  0  0  0  0  0  0  0  0  0
   -0.5169   -3.9868    0.0000 C   0  0  0  0  0  0  0  0  0  0  0  0
   -1.3881   -4.4784    0.0000 C   0  0  0  0  0  0  0  0  0  0  0  0
   -1.3975   -5.4788    0.0000 C   0  0  0  0  0  0  0  0  0  0  0  0
   -2.2681   -5.9712    0.0000 O   0  0  0  0  0  0  0  0  0  0  0  0
   -1.3767   -2.4664    0.0000 C   0  0  0  0  0  0  0  0  0  0  0  0
   -1.3837   -1.4792    0.0000 C   0  0  0  0  0  0  0  0  0  0  0  0
   -0.5019   -1.0010    0.0000 C   0  0  0  0  0  0  0  0  0  0  0  0
   -0.5063    0.0128    0.0000 C   0  0  0  0  0  0  0  0  0  0  0  0
   -1.3623    0.5104    0.0000 O   0  0  0  0  0  0  0  0  0  0  0  0
    0.3727   -1.5066    0.0000 C   0  0  0  0  0  0  0  0  0  0  0  0
  1  2  1  0
  2  3  1  0
  3  4  2  0
  3  5  1  0
  5  6  1  0
  6  7  2  0
  7  8  1  0
  8  9  2  0
  9 10  1  0
 10 11  2  0
  8 12  1  0
 12 13  1  0
 13 14  2  0
 13 15  1  0
 15 16  2  0
 16 17  1  0
 17 18  2  0
 18 19  1  0
 19 20  2  0
 20 21  1  0
 21 22  1  0
 22 23  1  0
 23 24  1  0
 20 25  1  0
 25 26  2  0
 26 27  1  0
 27 28  1  0
 28 29  2  0
 27 30  2  0
 11  2  1  0
 11  6  1  0
 28 12  1  0
 30 15  1  0
 30 19  1  0
M  END
>  <Frequencies>  (32) 
>2.00E-5

>  <SMILES 1 Canonical Smiles>  (32) 
>2.00E-5

>  <His-BRPF1 / H4Ac Peptide Interaction (HTRF) IC50 [mol/l] (mean)>  (32) 
0.0000139

>  <His-BRPF2 / H4Ac Peptide Interaction (HTRF) IC50 [mol/l] (mean)>  (32) 
>2.00E-5

>  <GST-TAF1 BD2 HTRF IC50 [mol/l] (mean)>  (32) 
>2.00E-5

>  <GST-TAF1L BD2 HTRF IC50 [mol/l] (mean)>  (32) 
>2.00E-5

$$$$
