
     RDKit          2D

 17 18  0  0  0  0  0  0  0  0999 V2000
   -0.0417    2.0417    0.0000 C   0  0  0  0  0  0  0  0  0  0  0  0
   -0.0417    3.5817    0.0000 C   0  0  0  0  0  0  0  0  0  0  0  0
   -1.5817    2.0417    0.0000 C   0  0  0  0  0  0  0  0  0  0  0  0
    1.4983    2.0417    0.0000 R#  0  0  0  0  0  0  0  0  0  0  0  0
   -0.0417    6.6617    0.0000 C   0  0  0  0  0  0  0  0  0  0  0  0
   -1.3753    5.8917    0.0000 C   0  0  0  0  0  0  0  0  0  0  0  0
   -1.3753    4.3517    0.0000 C   0  0  0  0  0  0  0  0  0  0  0  0
    1.2920    4.3517    0.0000 C   0  0  0  0  0  0  0  0  0  0  0  0
    1.2920    5.8917    0.0000 C   0  0  0  0  0  0  0  0  0  0  0  0
   -2.3516    3.3754    0.0000 C   0  0  0  0  0  0  0  0  0  0  0  0
   -3.8916    3.3753    0.0000 C   0  0  0  0  0  0  0  0  0  0  0  0
   -4.6617    2.0416    0.0000 C   0  0  0  0  0  0  0  0  0  0  0  0
   -3.8917    0.7079    0.0000 C   0  0  0  0  0  0  0  0  0  0  0  0
   -2.3517    0.7080    0.0000 C   0  0  0  0  0  0  0  0  0  0  0  0
   -0.0417    8.2017    0.0000 R#  0  0  0  0  0  0  0  0  0  0  0  0
   -6.2017    2.0416    0.0000 R#  0  0  0  0  0  0  0  0  0  0  0  0
   -0.0417    0.5017    0.0000 R#  0  0  0  0  0  0  0  0  0  0  0  0
  1  2  1  0
  1  3  1  0
  1  4  1  6
  5  6  2  0
  6  7  1  0
  8  9  2  0
  5  9  1  0
  7  2  2  0
  2  8  1  0
 10 11  2  0
 11 12  1  0
 12 13  2  0
 13 14  1  0
 14  3  2  0
 10  3  1  0
  5 15  1  0
 12 16  1  0
  1 17  1  0
M  RGP  4   4   3  15   1  16   2  17   4
V    4 *
V   15 *
V   16 *
V   17 *
M  END
>  <scaffold>  (1) 
1

$$$$
(R)-1
     RDKit          2D

 20 22  0  0  0  0  0  0  0  0999 V2000
    0.0076    3.8000    0.0000 Cl  0  0  0  0  0  0  0  0  0  0  0  0
    0.0056    2.8000    0.0000 C   0  0  0  0  0  0  0  0  0  0  0  0
    0.8706    2.2982    0.0000 C   0  0  0  0  0  0  0  0  0  0  0  0
    0.8686    1.2982    0.0000 C   0  0  0  0  0  0  0  0  0  0  0  0
    0.0016    0.8000    0.0000 C   0  0  0  0  0  0  0  0  0  0  0  0
   -0.8634    1.3016    0.0000 C   0  0  0  0  0  0  0  0  0  0  0  0
   -0.8614    2.3016    0.0000 C   0  0  0  0  0  0  0  0  0  0  0  0
   -0.0004   -0.2000    0.0000 C   0  0  0  0  0  0  0  0  0  0  0  0
    0.8646   -0.7018    0.0000 N   0  0  0  0  0  0  0  0  0  0  0  0
    0.8626   -1.7016    0.0000 C   0  0  0  0  0  0  0  0  0  0  0  0
    1.7276   -2.2034    0.0000 C   0  0  0  0  0  0  0  0  0  0  0  0
    2.5946   -1.7052    0.0000 N   0  0  0  0  0  0  0  0  0  0  0  0
    2.5966   -0.7052    0.0000 C   0  0  0  0  0  0  0  0  0  0  0  0
    1.7316   -0.2034    0.0000 C   0  0  0  0  0  0  0  0  0  0  0  0
   -0.8674   -0.6982    0.0000 C   0  0  0  0  0  0  0  0  0  0  0  0
   -1.7324   -0.1966    0.0000 C   0  0  0  0  0  0  0  0  0  0  0  0
   -2.5994   -0.6948    0.0000 C   0  0  0  0  0  0  0  0  0  0  0  0
   -2.6014   -1.6948    0.0000 C   0  0  0  0  0  0  0  0  0  0  0  0
   -1.7364   -2.1964    0.0000 C   0  0  0  0  0  0  0  0  0  0  0  0
   -0.8694   -1.6982    0.0000 C   0  0  0  0  0  0  0  0  0  0  0  0
  1  2  1  0
  2  3  2  0
  3  4  1  0
  4  5  2  0
  5  6  1  0
  6  7  2  0
  5  8  1  0
  8  9  1  6
  9 10  1  0
 10 11  1  0
 11 12  1  0
 12 13  1  0
 13 14  1  0
  8 15  1  0
 15 16  2  0
 16 17  1  0
 17 18  2  0
 18 19  1  0
 19 20  2  0
  7  2  1  0
 14  9  1  0
 20 15  1  0
M  END
>  <HCV EC50 (uM)>  (2) 
0.032 +/- 0.022

>  <Huh 7.5.1 CC50 (uM)>  (2) 
12.5 +/- 1.4

>  <Selectivity Index>  (2) 
391

>  <HepG2 CC50 (uM)>  (2) 


>  <Primary human hepatocyte CC50 (uM)>  (2) 


>  <Selectivity index>  (2) 


>  <H1HR %DMSO at 10nM>  (2) 


>  <HCVsc %DMSO>  (2) 


>  <HCVpp %DMSO GT1a>  (2) 


>  <HCVpp %DMSO GT1b>  (2) 


>  <MLVpp %DMSO>  (2) 


>  <VSV-Gpp %DMSO>  (2) 


>  <Replicon %DMSO GT2a>  (2) 


>  <Human microsomal t1/2 (min)>  (2) 


>  <Mouse microsomal t1/2 (min)>  (2) 


>  <Rat microsomal t1/2 (min)>  (2) 


>  <Permeability (10-6 cm/s)>  (2) 


>  <Solubility (?g/mL)>  (2) 


$$$$
(S)-1
     RDKit          2D

 20 22  0  0  0  0  0  0  0  0999 V2000
    0.0076    3.8000    0.0000 Cl  0  0  0  0  0  0  0  0  0  0  0  0
    0.0056    2.8000    0.0000 C   0  0  0  0  0  0  0  0  0  0  0  0
    0.8706    2.2982    0.0000 C   0  0  0  0  0  0  0  0  0  0  0  0
    0.8686    1.2982    0.0000 C   0  0  0  0  0  0  0  0  0  0  0  0
    0.0016    0.8000    0.0000 C   0  0  0  0  0  0  0  0  0  0  0  0
   -0.8634    1.3016    0.0000 C   0  0  0  0  0  0  0  0  0  0  0  0
   -0.8614    2.3016    0.0000 C   0  0  0  0  0  0  0  0  0  0  0  0
   -0.0004   -0.2000    0.0000 C   0  0  0  0  0  0  0  0  0  0  0  0
    0.8646   -0.7018    0.0000 N   0  0  0  0  0  0  0  0  0  0  0  0
    0.8626   -1.7016    0.0000 C   0  0  0  0  0  0  0  0  0  0  0  0
    1.7276   -2.2034    0.0000 C   0  0  0  0  0  0  0  0  0  0  0  0
    2.5946   -1.7052    0.0000 N   0  0  0  0  0  0  0  0  0  0  0  0
    2.5966   -0.7052    0.0000 C   0  0  0  0  0  0  0  0  0  0  0  0
    1.7316   -0.2034    0.0000 C   0  0  0  0  0  0  0  0  0  0  0  0
   -0.8674   -0.6982    0.0000 C   0  0  0  0  0  0  0  0  0  0  0  0
   -1.7324   -0.1966    0.0000 C   0  0  0  0  0  0  0  0  0  0  0  0
   -2.5994   -0.6948    0.0000 C   0  0  0  0  0  0  0  0  0  0  0  0
   -2.6014   -1.6948    0.0000 C   0  0  0  0  0  0  0  0  0  0  0  0
   -1.7364   -2.1964    0.0000 C   0  0  0  0  0  0  0  0  0  0  0  0
   -0.8694   -1.6982    0.0000 C   0  0  0  0  0  0  0  0  0  0  0  0
  1  2  1  0
  2  3  2  0
  3  4  1  0
  4  5  2  0
  5  6  1  0
  6  7  2  0
  5  8  1  0
  8  9  1  1
  9 10  1  0
 10 11  1  0
 11 12  1  0
 12 13  1  0
 13 14  1  0
  8 15  1  0
 15 16  2  0
 16 17  1  0
 17 18  2  0
 18 19  1  0
 19 20  2  0
  7  2  1  0
 14  9  1  0
 20 15  1  0
M  END
>  <HCV EC50 (uM)>  (3) 
0.032 +/- 0.007

>  <Huh 7.5.1 CC50 (uM)>  (3) 
9.31 +/- 0.04

>  <Selectivity Index>  (3) 
333

>  <HepG2 CC50 (uM)>  (3) 
NT

>  <Primary human hepatocyte CC50 (uM)>  (3) 
9.01

>  <Selectivity index>  (3) 
291

>  <H1HR %DMSO at 10nM>  (3) 
88.1

>  <HCVsc %DMSO>  (3) 
28.1

>  <HCVpp %DMSO GT1a>  (3) 
98.8

>  <HCVpp %DMSO GT1b>  (3) 
66.3

>  <MLVpp %DMSO>  (3) 
57.5

>  <VSV-Gpp %DMSO>  (3) 
51.9

>  <Replicon %DMSO GT2a>  (3) 
61.5

>  <Human microsomal t1/2 (min)>  (3) 
NT

>  <Mouse microsomal t1/2 (min)>  (3) 
NT

>  <Rat microsomal t1/2 (min)>  (3) 
NT

>  <Permeability (10-6 cm/s)>  (3) 
> 1920.0

>  <Solubility (?g/mL)>  (3) 
30.3

$$$$
Rac-1
     RDKit          2D

 20 22  0  0  0  0  0  0  0  0999 V2000
    0.0076    3.8000    0.0000 Cl  0  0  0  0  0  0  0  0  0  0  0  0
    0.0056    2.8000    0.0000 C   0  0  0  0  0  0  0  0  0  0  0  0
    0.8706    2.2982    0.0000 C   0  0  0  0  0  0  0  0  0  0  0  0
    0.8686    1.2982    0.0000 C   0  0  0  0  0  0  0  0  0  0  0  0
    0.0016    0.8000    0.0000 C   0  0  0  0  0  0  0  0  0  0  0  0
   -0.8634    1.3016    0.0000 C   0  0  0  0  0  0  0  0  0  0  0  0
   -0.8614    2.3016    0.0000 C   0  0  0  0  0  0  0  0  0  0  0  0
   -0.0004   -0.2000    0.0000 C   0  0  0  0  0  0  0  0  0  0  0  0
    0.8646   -0.7018    0.0000 N   0  0  0  0  0  0  0  0  0  0  0  0
    0.8626   -1.7016    0.0000 C   0  0  0  0  0  0  0  0  0  0  0  0
    1.7276   -2.2034    0.0000 C   0  0  0  0  0  0  0  0  0  0  0  0
    2.5946   -1.7052    0.0000 N   0  0  0  0  0  0  0  0  0  0  0  0
    2.5966   -0.7052    0.0000 C   0  0  0  0  0  0  0  0  0  0  0  0
    1.7316   -0.2034    0.0000 C   0  0  0  0  0  0  0  0  0  0  0  0
   -0.8674   -0.6982    0.0000 C   0  0  0  0  0  0  0  0  0  0  0  0
   -1.7324   -0.1966    0.0000 C   0  0  0  0  0  0  0  0  0  0  0  0
   -2.5994   -0.6948    0.0000 C   0  0  0  0  0  0  0  0  0  0  0  0
   -2.6014   -1.6948    0.0000 C   0  0  0  0  0  0  0  0  0  0  0  0
   -1.7364   -2.1964    0.0000 C   0  0  0  0  0  0  0  0  0  0  0  0
   -0.8694   -1.6982    0.0000 C   0  0  0  0  0  0  0  0  0  0  0  0
  1  2  1  0
  2  3  2  0
  3  4  1  0
  4  5  2  0
  5  6  1  0
  6  7  2  0
  5  8  1  0
  8  9  1  0
  9 10  1  0
 10 11  1  0
 11 12  1  0
 12 13  1  0
 13 14  1  0
  8 15  1  0
 15 16  2  0
 16 17  1  0
 17 18  2  0
 18 19  1  0
 19 20  2  0
  7  2  1  0
 14  9  1  0
 20 15  1  0
M  END
>  <HCV EC50 (uM)>  (4) 
0.035 +/- 0.013

>  <Huh 7.5.1 CC50 (uM)>  (4) 
10.4 +/- 0.2

>  <Selectivity Index>  (4) 
297

>  <HepG2 CC50 (uM)>  (4) 


>  <Primary human hepatocyte CC50 (uM)>  (4) 


>  <Selectivity index>  (4) 


>  <H1HR %DMSO at 10nM>  (4) 


>  <HCVsc %DMSO>  (4) 


>  <HCVpp %DMSO GT1a>  (4) 


>  <HCVpp %DMSO GT1b>  (4) 


>  <MLVpp %DMSO>  (4) 


>  <VSV-Gpp %DMSO>  (4) 


>  <Replicon %DMSO GT2a>  (4) 


>  <Human microsomal t1/2 (min)>  (4) 


>  <Mouse microsomal t1/2 (min)>  (4) 


>  <Rat microsomal t1/2 (min)>  (4) 


>  <Permeability (10-6 cm/s)>  (4) 


>  <Solubility (?g/mL)>  (4) 


$$$$
(R)-2
     RDKit          2D

 21 23  0  0  0  0  0  0  0  0999 V2000
    3.4626   -1.8122    0.0000 Cl  0  0  0  0  0  0  0  0  0  0  0  0
    2.5970   -1.3116    0.0000 C   0  0  0  0  0  0  0  0  0  0  0  0
    1.7306   -1.8110    0.0000 C   0  0  0  0  0  0  0  0  0  0  0  0
    0.8650   -1.3102    0.0000 C   0  0  0  0  0  0  0  0  0  0  0  0
    2.5978   -0.3116    0.0000 C   0  0  0  0  0  0  0  0  0  0  0  0
    1.7322    0.1890    0.0000 C   0  0  0  0  0  0  0  0  0  0  0  0
    0.8658   -0.3102    0.0000 C   0  0  0  0  0  0  0  0  0  0  0  0
    0.0002    0.1904    0.0000 C   0  0  0  0  0  0  0  0  0  0  0  0
    0.0010    1.1904    0.0000 C   0  0  0  0  0  0  0  0  0  0  0  0
   -0.8646    1.6912    0.0000 C   0  0  0  0  0  0  0  0  0  0  0  0
   -0.8638    2.6912    0.0000 C   0  0  0  0  0  0  0  0  0  0  0  0
    0.0026    3.1904    0.0000 C   0  0  0  0  0  0  0  0  0  0  0  0
    0.8682    2.6898    0.0000 C   0  0  0  0  0  0  0  0  0  0  0  0
    0.8674    1.6898    0.0000 C   0  0  0  0  0  0  0  0  0  0  0  0
   -0.8662   -0.3088    0.0000 N   0  0  0  0  0  0  0  0  0  0  0  0
   -0.8670   -1.3088    0.0000 C   0  0  0  0  0  0  0  0  0  0  0  0
   -1.7334   -1.8082    0.0000 C   0  0  0  0  0  0  0  0  0  0  0  0
   -2.5990   -1.3074    0.0000 N   0  0  0  0  0  0  0  0  0  0  0  0
   -3.4654   -1.8068    0.0000 C   0  0  0  0  0  0  0  0  0  0  0  0
   -2.5982   -0.3074    0.0000 C   0  0  0  0  0  0  0  0  0  0  0  0
   -1.7318    0.1918    0.0000 C   0  0  0  0  0  0  0  0  0  0  0  0
  1  2  1  0
  2  3  2  0
  3  4  1  0
  2  5  1  0
  5  6  2  0
  6  7  1  0
  7  8  1  0
  8  9  1  0
  9 10  2  0
 10 11  1  0
 11 12  2  0
 12 13  1  0
 13 14  2  0
  8 15  1  6
 15 16  1  0
 16 17  1  0
 17 18  1  0
 18 19  1  0
 18 20  1  0
 20 21  1  0
  7  4  2  0
 14  9  1  0
 21 15  1  0
M  END
>  <HCV EC50 (uM)>  (5) 
0.020 +/- 0.005

>  <Huh 7.5.1 CC50 (uM)>  (5) 
37.5 +/- 4.2

>  <Selectivity Index>  (5) 
1875

>  <HepG2 CC50 (uM)>  (5) 


>  <Primary human hepatocyte CC50 (uM)>  (5) 


>  <Selectivity index>  (5) 


>  <H1HR %DMSO at 10nM>  (5) 


>  <HCVsc %DMSO>  (5) 


>  <HCVpp %DMSO GT1a>  (5) 


>  <HCVpp %DMSO GT1b>  (5) 


>  <MLVpp %DMSO>  (5) 


>  <VSV-Gpp %DMSO>  (5) 


>  <Replicon %DMSO GT2a>  (5) 


>  <Human microsomal t1/2 (min)>  (5) 


>  <Mouse microsomal t1/2 (min)>  (5) 


>  <Rat microsomal t1/2 (min)>  (5) 


>  <Permeability (10-6 cm/s)>  (5) 


>  <Solubility (?g/mL)>  (5) 


$$$$
(S)-2
     RDKit          2D

 21 23  0  0  0  0  0  0  0  0999 V2000
   -3.3007   -2.0925    0.0000 C   0  0  0  0  0  0  0  0  0  0  0  0
   -2.4343   -1.5933    0.0000 N   0  0  0  0  0  0  0  0  0  0  0  0
   -1.5687   -2.0939    0.0000 C   0  0  0  0  0  0  0  0  0  0  0  0
   -0.7023   -1.5947    0.0000 C   0  0  0  0  0  0  0  0  0  0  0  0
   -0.7015   -0.5947    0.0000 N   0  0  0  0  0  0  0  0  0  0  0  0
   -1.5671   -0.0939    0.0000 C   0  0  0  0  0  0  0  0  0  0  0  0
   -2.4335   -0.5933    0.0000 C   0  0  0  0  0  0  0  0  0  0  0  0
    0.1649   -0.0953    0.0000 C   0  0  0  0  0  0  0  0  0  0  0  0
    1.0305   -0.5961    0.0000 C   0  0  0  0  0  0  0  0  0  0  0  0
    1.8969   -0.0967    0.0000 C   0  0  0  0  0  0  0  0  0  0  0  0
    2.7625   -0.5973    0.0000 C   0  0  0  0  0  0  0  0  0  0  0  0
    2.7617   -1.5973    0.0000 C   0  0  0  0  0  0  0  0  0  0  0  0
    1.8953   -2.0967    0.0000 C   0  0  0  0  0  0  0  0  0  0  0  0
    1.0297   -1.5961    0.0000 C   0  0  0  0  0  0  0  0  0  0  0  0
    0.1657    0.9047    0.0000 C   0  0  0  0  0  0  0  0  0  0  0  0
   -0.6999    1.4053    0.0000 C   0  0  0  0  0  0  0  0  0  0  0  0
   -0.6991    2.4053    0.0000 C   0  0  0  0  0  0  0  0  0  0  0  0
    0.1673    2.9047    0.0000 C   0  0  0  0  0  0  0  0  0  0  0  0
    0.1679    3.9047    0.0000 Cl  0  0  0  0  0  0  0  0  0  0  0  0
    1.0329    2.4039    0.0000 C   0  0  0  0  0  0  0  0  0  0  0  0
    1.0321    1.4039    0.0000 C   0  0  0  0  0  0  0  0  0  0  0  0
  1  2  1  0
  2  3  1  0
  3  4  1  0
  4  5  1  0
  5  6  1  0
  6  7  1  0
  8  5  1  6
  8  9  1  0
  9 10  2  0
 10 11  1  0
 11 12  2  0
 12 13  1  0
 13 14  2  0
  8 15  1  0
 15 16  2  0
 16 17  1  0
 17 18  2  0
 18 19  1  0
 18 20  1  0
 20 21  2  0
  7  2  1  0
 14  9  1  0
 21 15  1  0
M  END
>  <HCV EC50 (uM)>  (6) 
0.024 +/- 0.009

>  <Huh 7.5.1 CC50 (uM)>  (6) 
33.4 +/- 2.4

>  <Selectivity Index>  (6) 
1392

>  <HepG2 CC50 (uM)>  (6) 
32.3

>  <Primary human hepatocyte CC50 (uM)>  (6) 
> 31.6

>  <Selectivity index>  (6) 
1392

>  <H1HR %DMSO at 10nM>  (6) 
49.5

>  <HCVsc %DMSO>  (6) 
2.1

>  <HCVpp %DMSO GT1a>  (6) 
107

>  <HCVpp %DMSO GT1b>  (6) 
116

>  <MLVpp %DMSO>  (6) 
103

>  <VSV-Gpp %DMSO>  (6) 
120

>  <Replicon %DMSO GT2a>  (6) 
101

>  <Human microsomal t1/2 (min)>  (6) 
NT

>  <Mouse microsomal t1/2 (min)>  (6) 
NT

>  <Rat microsomal t1/2 (min)>  (6) 
NT

>  <Permeability (10-6 cm/s)>  (6) 
1834

>  <Solubility (?g/mL)>  (6) 
29.3

$$$$
Rac-2
     RDKit          2D

 21 23  0  0  0  0  0  0  0  0999 V2000
   -3.3007   -2.0925    0.0000 C   0  0  0  0  0  0  0  0  0  0  0  0
   -2.4343   -1.5933    0.0000 N   0  0  0  0  0  0  0  0  0  0  0  0
   -1.5687   -2.0939    0.0000 C   0  0  0  0  0  0  0  0  0  0  0  0
   -0.7023   -1.5947    0.0000 C   0  0  0  0  0  0  0  0  0  0  0  0
   -0.7015   -0.5947    0.0000 N   0  0  0  0  0  0  0  0  0  0  0  0
   -1.5671   -0.0939    0.0000 C   0  0  0  0  0  0  0  0  0  0  0  0
   -2.4335   -0.5933    0.0000 C   0  0  0  0  0  0  0  0  0  0  0  0
    0.1649   -0.0953    0.0000 C   0  0  0  0  0  0  0  0  0  0  0  0
    1.0305   -0.5961    0.0000 C   0  0  0  0  0  0  0  0  0  0  0  0
    1.8969   -0.0967    0.0000 C   0  0  0  0  0  0  0  0  0  0  0  0
    2.7625   -0.5973    0.0000 C   0  0  0  0  0  0  0  0  0  0  0  0
    2.7617   -1.5973    0.0000 C   0  0  0  0  0  0  0  0  0  0  0  0
    1.8953   -2.0967    0.0000 C   0  0  0  0  0  0  0  0  0  0  0  0
    1.0297   -1.5961    0.0000 C   0  0  0  0  0  0  0  0  0  0  0  0
    0.1657    0.9047    0.0000 C   0  0  0  0  0  0  0  0  0  0  0  0
   -0.6999    1.4053    0.0000 C   0  0  0  0  0  0  0  0  0  0  0  0
   -0.6991    2.4053    0.0000 C   0  0  0  0  0  0  0  0  0  0  0  0
    0.1673    2.9047    0.0000 C   0  0  0  0  0  0  0  0  0  0  0  0
    0.1679    3.9047    0.0000 Cl  0  0  0  0  0  0  0  0  0  0  0  0
    1.0329    2.4039    0.0000 C   0  0  0  0  0  0  0  0  0  0  0  0
    1.0321    1.4039    0.0000 C   0  0  0  0  0  0  0  0  0  0  0  0
  1  2  1  0
  2  3  1  0
  3  4  1  0
  4  5  1  0
  5  6  1  0
  6  7  1  0
  5  8  1  0
  8  9  1  0
  9 10  2  0
 10 11  1  0
 11 12  2  0
 12 13  1  0
 13 14  2  0
  8 15  1  0
 15 16  2  0
 16 17  1  0
 17 18  2  0
 18 19  1  0
 18 20  1  0
 20 21  2  0
  7  2  1  0
 14  9  1  0
 21 15  1  0
M  END
>  <HCV EC50 (uM)>  (7) 
0.044 +/- 0.011

>  <Huh 7.5.1 CC50 (uM)>  (7) 
49.8 +/- 17.2

>  <Selectivity Index>  (7) 
1132

>  <HepG2 CC50 (uM)>  (7) 
NT

>  <Primary human hepatocyte CC50 (uM)>  (7) 
NT

>  <Selectivity index>  (7) 
1132

>  <H1HR %DMSO at 10nM>  (7) 
16

>  <HCVsc %DMSO>  (7) 
24.9

>  <HCVpp %DMSO GT1a>  (7) 
92.5

>  <HCVpp %DMSO GT1b>  (7) 
120

>  <MLVpp %DMSO>  (7) 
124

>  <VSV-Gpp %DMSO>  (7) 
105

>  <Replicon %DMSO GT2a>  (7) 
102

>  <Human microsomal t1/2 (min)>  (7) 
113

>  <Mouse microsomal t1/2 (min)>  (7) 
36

>  <Rat microsomal t1/2 (min)>  (7) 
4.6

>  <Permeability (10-6 cm/s)>  (7) 
NT

>  <Solubility (?g/mL)>  (7) 
NT

$$$$
Rac-3
     RDKit          2D

 27 29  0  0  0  0  0  0  0  0999 V2000
    4.8443    1.4220    0.0000 Cl  0  0  0  0  0  0  0  0  0  0  0  0
    3.9779    0.9228    0.0000 C   0  0  0  0  0  0  0  0  0  0  0  0
    3.9771   -0.0772    0.0000 C   0  0  0  0  0  0  0  0  0  0  0  0
    3.1107   -0.5764    0.0000 C   0  0  0  0  0  0  0  0  0  0  0  0
    3.1123    1.4234    0.0000 C   0  0  0  0  0  0  0  0  0  0  0  0
    2.2459    0.9242    0.0000 C   0  0  0  0  0  0  0  0  0  0  0  0
    2.2451   -0.0760    0.0000 C   0  0  0  0  0  0  0  0  0  0  0  0
    1.3787   -0.5752    0.0000 C   0  0  0  0  0  0  0  0  0  0  0  0
    1.3779   -1.5752    0.0000 C   0  0  0  0  0  0  0  0  0  0  0  0
    2.2435   -2.0758    0.0000 C   0  0  0  0  0  0  0  0  0  0  0  0
    2.2427   -3.0760    0.0000 C   0  0  0  0  0  0  0  0  0  0  0  0
    1.3763   -3.5752    0.0000 C   0  0  0  0  0  0  0  0  0  0  0  0
    0.5107   -3.0746    0.0000 C   0  0  0  0  0  0  0  0  0  0  0  0
    0.5115   -2.0744    0.0000 C   0  0  0  0  0  0  0  0  0  0  0  0
    0.5131   -0.0746    0.0000 N   0  0  0  0  0  0  0  0  0  0  0  0
   -0.3533   -0.5738    0.0000 C   0  0  0  0  0  0  0  0  0  0  0  0
   -1.2189   -0.0732    0.0000 C   0  0  0  0  0  0  0  0  0  0  0  0
   -1.2181    0.9270    0.0000 N   0  0  0  0  0  0  0  0  0  0  0  0
   -2.0837    1.4276    0.0000 C   0  0  0  0  0  0  0  0  0  0  0  0
   -2.9501    0.9282    0.0000 C   0  0  0  0  0  0  0  0  0  0  0  0
   -3.8157    1.4290    0.0000 O   0  0  0  0  0  0  0  0  0  0  0  0
   -4.6821    0.9296    0.0000 C   0  0  0  0  0  0  0  0  0  0  0  0
   -5.5477    1.4304    0.0000 C   0  0  0  0  0  0  0  0  0  0  0  0
   -6.4141    0.9310    0.0000 O   0  0  0  0  0  0  0  0  0  0  0  0
   -5.5469    2.4304    0.0000 O   0  0  0  0  0  0  0  0  0  0  0  0
   -0.3517    1.4262    0.0000 C   0  0  0  0  0  0  0  0  0  0  0  0
    0.5139    0.9256    0.0000 C   0  0  0  0  0  0  0  0  0  0  0  0
  1  2  1  0
  2  3  2  0
  3  4  1  0
  2  5  1  0
  5  6  2  0
  6  7  1  0
  7  8  1  0
  8  9  1  0
  9 10  2  0
 10 11  1  0
 11 12  2  0
 12 13  1  0
 13 14  2  0
  8 15  1  0
 15 16  1  0
 16 17  1  0
 17 18  1  0
 18 19  1  0
 19 20  1  0
 20 21  1  0
 21 22  1  0
 22 23  1  0
 23 24  1  0
 23 25  2  0
 18 26  1  0
 26 27  1  0
  7  4  2  0
 14  9  1  0
 27 15  1  0
M  END
>  <HCV EC50 (uM)>  (8) 
> 31.6

>  <Huh 7.5.1 CC50 (uM)>  (8) 
> 100

>  <Selectivity Index>  (8) 
N/A

>  <HepG2 CC50 (uM)>  (8) 


>  <Primary human hepatocyte CC50 (uM)>  (8) 


>  <Selectivity index>  (8) 


>  <H1HR %DMSO at 10nM>  (8) 


>  <HCVsc %DMSO>  (8) 


>  <HCVpp %DMSO GT1a>  (8) 


>  <HCVpp %DMSO GT1b>  (8) 


>  <MLVpp %DMSO>  (8) 


>  <VSV-Gpp %DMSO>  (8) 


>  <Replicon %DMSO GT2a>  (8) 


>  <Human microsomal t1/2 (min)>  (8) 


>  <Mouse microsomal t1/2 (min)>  (8) 


>  <Rat microsomal t1/2 (min)>  (8) 


>  <Permeability (10-6 cm/s)>  (8) 


>  <Solubility (?g/mL)>  (8) 


$$$$
Rac-4
     RDKit          2D

 27 29  0  0  0  0  0  0  0  0999 V2000
    4.8443    1.4220    0.0000 Cl  0  0  0  0  0  0  0  0  0  0  0  0
    3.9779    0.9228    0.0000 C   0  0  0  0  0  0  0  0  0  0  0  0
    3.9771   -0.0772    0.0000 C   0  0  0  0  0  0  0  0  0  0  0  0
    3.1107   -0.5764    0.0000 C   0  0  0  0  0  0  0  0  0  0  0  0
    3.1123    1.4234    0.0000 C   0  0  0  0  0  0  0  0  0  0  0  0
    2.2459    0.9242    0.0000 C   0  0  0  0  0  0  0  0  0  0  0  0
    2.2451   -0.0760    0.0000 C   0  0  0  0  0  0  0  0  0  0  0  0
    1.3787   -0.5752    0.0000 C   0  0  0  0  0  0  0  0  0  0  0  0
    1.3779   -1.5752    0.0000 C   0  0  0  0  0  0  0  0  0  0  0  0
    2.2435   -2.0758    0.0000 C   0  0  0  0  0  0  0  0  0  0  0  0
    2.2427   -3.0760    0.0000 C   0  0  0  0  0  0  0  0  0  0  0  0
    1.3763   -3.5752    0.0000 C   0  0  0  0  0  0  0  0  0  0  0  0
    0.5107   -3.0746    0.0000 C   0  0  0  0  0  0  0  0  0  0  0  0
    0.5115   -2.0744    0.0000 C   0  0  0  0  0  0  0  0  0  0  0  0
    0.5131   -0.0746    0.0000 N   0  0  0  0  0  0  0  0  0  0  0  0
   -0.3533   -0.5738    0.0000 C   0  0  0  0  0  0  0  0  0  0  0  0
   -1.2189   -0.0732    0.0000 C   0  0  0  0  0  0  0  0  0  0  0  0
   -1.2181    0.9270    0.0000 N   0  0  0  0  0  0  0  0  0  0  0  0
   -2.0837    1.4276    0.0000 C   0  0  0  0  0  0  0  0  0  0  0  0
   -2.9501    0.9282    0.0000 C   0  0  0  0  0  0  0  0  0  0  0  0
   -3.8157    1.4290    0.0000 O   0  0  0  0  0  0  0  0  0  0  0  0
   -4.6821    0.9296    0.0000 C   0  0  0  0  0  0  0  0  0  0  0  0
   -5.5477    1.4304    0.0000 C   0  0  0  0  0  0  0  0  0  0  0  0
   -6.4141    0.9310    0.0000 N   0  0  0  0  0  0  0  0  0  0  0  0
   -5.5469    2.4304    0.0000 O   0  0  0  0  0  0  0  0  0  0  0  0
   -0.3517    1.4262    0.0000 C   0  0  0  0  0  0  0  0  0  0  0  0
    0.5139    0.9256    0.0000 C   0  0  0  0  0  0  0  0  0  0  0  0
  1  2  1  0
  2  3  2  0
  3  4  1  0
  2  5  1  0
  5  6  2  0
  6  7  1  0
  7  8  1  0
  8  9  1  0
  9 10  2  0
 10 11  1  0
 11 12  2  0
 12 13  1  0
 13 14  2  0
  8 15  1  0
 15 16  1  0
 16 17  1  0
 17 18  1  0
 18 19  1  0
 19 20  1  0
 20 21  1  0
 21 22  1  0
 22 23  1  0
 23 24  1  0
 23 25  2  0
 18 26  1  0
 26 27  1  0
  7  4  2  0
 14  9  1  0
 27 15  1  0
M  END
>  <HCV EC50 (uM)>  (9) 
0.103 +/- 0.052

>  <Huh 7.5.1 CC50 (uM)>  (9) 
> 100

>  <Selectivity Index>  (9) 
> 910

>  <HepG2 CC50 (uM)>  (9) 


>  <Primary human hepatocyte CC50 (uM)>  (9) 


>  <Selectivity index>  (9) 


>  <H1HR %DMSO at 10nM>  (9) 


>  <HCVsc %DMSO>  (9) 


>  <HCVpp %DMSO GT1a>  (9) 


>  <HCVpp %DMSO GT1b>  (9) 


>  <MLVpp %DMSO>  (9) 


>  <VSV-Gpp %DMSO>  (9) 


>  <Replicon %DMSO GT2a>  (9) 


>  <Human microsomal t1/2 (min)>  (9) 


>  <Mouse microsomal t1/2 (min)>  (9) 


>  <Rat microsomal t1/2 (min)>  (9) 


>  <Permeability (10-6 cm/s)>  (9) 


>  <Solubility (?g/mL)>  (9) 


$$$$
Rac-5
     RDKit          2D

 26 28  0  0  0  0  0  0  0  0999 V2000
   -6.6274   -1.0244    0.0000 O   0  0  0  0  0  0  0  0  0  0  0  0
   -5.7610   -1.5238    0.0000 C   0  0  0  0  0  0  0  0  0  0  0  0
   -4.8954   -1.0230    0.0000 C   0  0  0  0  0  0  0  0  0  0  0  0
   -4.0290   -1.5224    0.0000 O   0  0  0  0  0  0  0  0  0  0  0  0
   -3.1634   -1.0218    0.0000 C   0  0  0  0  0  0  0  0  0  0  0  0
   -2.2970   -1.5210    0.0000 C   0  0  0  0  0  0  0  0  0  0  0  0
   -1.4316   -1.0204    0.0000 N   0  0  0  0  0  0  0  0  0  0  0  0
   -1.4324   -0.0202    0.0000 C   0  0  0  0  0  0  0  0  0  0  0  0
   -0.5666    0.4802    0.0000 C   0  0  0  0  0  0  0  0  0  0  0  0
    0.2998   -0.0190    0.0000 N   0  0  0  0  0  0  0  0  0  0  0  0
    0.3006   -1.0190    0.0000 C   0  0  0  0  0  0  0  0  0  0  0  0
   -0.5650   -1.5196    0.0000 C   0  0  0  0  0  0  0  0  0  0  0  0
    1.1654    0.4818    0.0000 C   0  0  0  0  0  0  0  0  0  0  0  0
    1.1646    1.4818    0.0000 C   0  0  0  0  0  0  0  0  0  0  0  0
    2.0302    1.9824    0.0000 C   0  0  0  0  0  0  0  0  0  0  0  0
    2.0294    2.9824    0.0000 C   0  0  0  0  0  0  0  0  0  0  0  0
    1.1630    3.4816    0.0000 C   0  0  0  0  0  0  0  0  0  0  0  0
    0.2974    2.9810    0.0000 C   0  0  0  0  0  0  0  0  0  0  0  0
    0.2982    1.9810    0.0000 C   0  0  0  0  0  0  0  0  0  0  0  0
    2.0316   -0.0176    0.0000 C   0  0  0  0  0  0  0  0  0  0  0  0
    2.0324   -1.0176    0.0000 C   0  0  0  0  0  0  0  0  0  0  0  0
    2.8990   -1.5168    0.0000 C   0  0  0  0  0  0  0  0  0  0  0  0
    3.7646   -1.0162    0.0000 C   0  0  0  0  0  0  0  0  0  0  0  0
    4.6310   -1.5156    0.0000 Cl  0  0  0  0  0  0  0  0  0  0  0  0
    3.7638   -0.0162    0.0000 C   0  0  0  0  0  0  0  0  0  0  0  0
    2.8974    0.4830    0.0000 C   0  0  0  0  0  0  0  0  0  0  0  0
  1  2  1  0
  2  3  1  0
  3  4  1  0
  4  5  1  0
  5  6  1  0
  6  7  1  0
  7  8  1  0
  8  9  1  0
  9 10  1  0
 10 11  1  0
 11 12  1  0
 10 13  1  0
 13 14  1  0
 14 15  2  0
 15 16  1  0
 16 17  2  0
 17 18  1  0
 18 19  2  0
 13 20  1  0
 20 21  2  0
 21 22  1  0
 22 23  2  0
 23 24  1  0
 23 25  1  0
 25 26  2  0
 12  7  1  0
 19 14  1  0
 26 20  1  0
M  END
>  <HCV EC50 (uM)>  (10) 
0.032 +/- 0.011

>  <Huh 7.5.1 CC50 (uM)>  (10) 
42.6 +/- 1.8

>  <Selectivity Index>  (10) 
1331

>  <HepG2 CC50 (uM)>  (10) 


>  <Primary human hepatocyte CC50 (uM)>  (10) 


>  <Selectivity index>  (10) 


>  <H1HR %DMSO at 10nM>  (10) 


>  <HCVsc %DMSO>  (10) 


>  <HCVpp %DMSO GT1a>  (10) 


>  <HCVpp %DMSO GT1b>  (10) 


>  <MLVpp %DMSO>  (10) 


>  <VSV-Gpp %DMSO>  (10) 


>  <Replicon %DMSO GT2a>  (10) 


>  <Human microsomal t1/2 (min)>  (10) 


>  <Mouse microsomal t1/2 (min)>  (10) 


>  <Rat microsomal t1/2 (min)>  (10) 


>  <Permeability (10-6 cm/s)>  (10) 


>  <Solubility (?g/mL)>  (10) 


$$$$
6
     RDKit          2D

 20 22  0  0  0  0  0  0  0  0999 V2000
   -3.2923   -1.8974    0.0000 C   0  0  0  0  0  0  0  0  0  0  0  0
   -2.4259   -1.3980    0.0000 N   0  0  0  0  0  0  0  0  0  0  0  0
   -1.5603   -1.8988    0.0000 C   0  0  0  0  0  0  0  0  0  0  0  0
   -0.6939   -1.3994    0.0000 C   0  0  0  0  0  0  0  0  0  0  0  0
   -0.6931   -0.3994    0.0000 N   0  0  0  0  0  0  0  0  0  0  0  0
   -1.5587    0.1012    0.0000 C   0  0  0  0  0  0  0  0  0  0  0  0
   -2.4251   -0.3980    0.0000 C   0  0  0  0  0  0  0  0  0  0  0  0
    0.1733    0.0998    0.0000 C   0  0  0  0  0  0  0  0  0  0  0  0
    1.0389   -0.4008    0.0000 C   0  0  0  0  0  0  0  0  0  0  0  0
    1.9053    0.0984    0.0000 C   0  0  0  0  0  0  0  0  0  0  0  0
    2.7709   -0.4022    0.0000 C   0  0  0  0  0  0  0  0  0  0  0  0
    2.7701   -1.4022    0.0000 C   0  0  0  0  0  0  0  0  0  0  0  0
    1.9037   -1.9016    0.0000 C   0  0  0  0  0  0  0  0  0  0  0  0
    1.0381   -1.4008    0.0000 C   0  0  0  0  0  0  0  0  0  0  0  0
    0.1741    1.0998    0.0000 C   0  0  0  0  0  0  0  0  0  0  0  0
   -0.6915    1.6006    0.0000 C   0  0  0  0  0  0  0  0  0  0  0  0
   -0.6907    2.6006    0.0000 C   0  0  0  0  0  0  0  0  0  0  0  0
    0.1757    3.0998    0.0000 C   0  0  0  0  0  0  0  0  0  0  0  0
    1.0413    2.5992    0.0000 C   0  0  0  0  0  0  0  0  0  0  0  0
    1.0405    1.5992    0.0000 C   0  0  0  0  0  0  0  0  0  0  0  0
  1  2  1  0
  2  3  1  0
  3  4  1  0
  4  5  1  0
  5  6  1  0
  6  7  1  0
  5  8  1  0
  8  9  1  0
  9 10  2  0
 10 11  1  0
 11 12  2  0
 12 13  1  0
 13 14  2  0
  8 15  1  0
 15 16  2  0
 16 17  1  0
 17 18  2  0
 18 19  1  0
 19 20  2  0
  7  2  1  0
 14  9  1  0
 20 15  1  0
M  END
>  <HCV EC50 (uM)>  (11) 
1.14 +/- 0.37

>  <Huh 7.5.1 CC50 (uM)>  (11) 
> 100

>  <Selectivity Index>  (11) 
> 88

>  <HepG2 CC50 (uM)>  (11) 


>  <Primary human hepatocyte CC50 (uM)>  (11) 


>  <Selectivity index>  (11) 


>  <H1HR %DMSO at 10nM>  (11) 


>  <HCVsc %DMSO>  (11) 


>  <HCVpp %DMSO GT1a>  (11) 


>  <HCVpp %DMSO GT1b>  (11) 


>  <MLVpp %DMSO>  (11) 


>  <VSV-Gpp %DMSO>  (11) 


>  <Replicon %DMSO GT2a>  (11) 


>  <Human microsomal t1/2 (min)>  (11) 


>  <Mouse microsomal t1/2 (min)>  (11) 


>  <Rat microsomal t1/2 (min)>  (11) 


>  <Permeability (10-6 cm/s)>  (11) 


>  <Solubility (?g/mL)>  (11) 


$$$$
Rac-7
     RDKit          2D

 22 24  0  0  0  0  0  0  0  0999 V2000
    0.3096    3.9436    0.0000 Cl  0  0  0  0  0  0  0  0  0  0  0  0
    0.3080    2.9436    0.0000 C   0  0  0  0  0  0  0  0  0  0  0  0
   -0.5588    2.4450    0.0000 C   0  0  0  0  0  0  0  0  0  0  0  0
   -0.5606    1.4450    0.0000 C   0  0  0  0  0  0  0  0  0  0  0  0
    1.1730    2.4422    0.0000 C   0  0  0  0  0  0  0  0  0  0  0  0
    1.1716    1.4422    0.0000 C   0  0  0  0  0  0  0  0  0  0  0  0
    0.3046    0.9436    0.0000 C   0  0  0  0  0  0  0  0  0  0  0  0
    0.3030   -0.0562    0.0000 C   0  0  0  0  0  0  0  0  0  0  0  0
    1.1680   -0.5578    0.0000 C   0  0  0  0  0  0  0  0  0  0  0  0
    1.1664   -1.5576    0.0000 C   0  0  0  0  0  0  0  0  0  0  0  0
    2.0316   -2.0592    0.0000 C   0  0  0  0  0  0  0  0  0  0  0  0
    2.8984   -1.5608    0.0000 C   0  0  0  0  0  0  0  0  0  0  0  0
    2.9000   -0.5608    0.0000 C   0  0  0  0  0  0  0  0  0  0  0  0
    2.0348   -0.0594    0.0000 C   0  0  0  0  0  0  0  0  0  0  0  0
   -0.5640   -0.5548    0.0000 N   0  0  0  0  0  0  0  0  0  0  0  0
   -0.4910   -1.5522    0.0000 C   0  0  0  0  0  0  0  0  0  0  0  0
   -1.2250   -2.2312    0.0000 C   0  0  0  0  0  0  0  0  0  0  0  0
   -2.2136   -2.0806    0.0000 C   0  0  0  0  0  0  0  0  0  0  0  0
   -2.7122   -1.2138    0.0000 N   0  0  0  0  0  0  0  0  0  0  0  0
   -3.7096   -1.2868    0.0000 C   0  0  0  0  0  0  0  0  0  0  0  0
   -2.3454   -0.2834    0.0000 C   0  0  0  0  0  0  0  0  0  0  0  0
   -1.3894    0.0098    0.0000 C   0  0  0  0  0  0  0  0  0  0  0  0
  1  2  1  0
  2  3  2  0
  3  4  1  0
  2  5  1  0
  5  6  2  0
  6  7  1  0
  7  8  1  0
  8  9  1  0
  9 10  2  0
 10 11  1  0
 11 12  2  0
 12 13  1  0
 13 14  2  0
  8 15  1  0
 15 16  1  0
 16 17  1  0
 17 18  1  0
 18 19  1  0
 19 20  1  0
 19 21  1  0
 21 22  1  0
  7  4  2  0
 14  9  1  0
 22 15  1  0
M  END
>  <HCV EC50 (uM)>  (12) 
0.057 +/- 0.008

>  <Huh 7.5.1 CC50 (uM)>  (12) 
12.8 +/- 0.1

>  <Selectivity Index>  (12) 
225

>  <HepG2 CC50 (uM)>  (12) 


>  <Primary human hepatocyte CC50 (uM)>  (12) 


>  <Selectivity index>  (12) 


>  <H1HR %DMSO at 10nM>  (12) 


>  <HCVsc %DMSO>  (12) 


>  <HCVpp %DMSO GT1a>  (12) 


>  <HCVpp %DMSO GT1b>  (12) 


>  <MLVpp %DMSO>  (12) 


>  <VSV-Gpp %DMSO>  (12) 


>  <Replicon %DMSO GT2a>  (12) 


>  <Human microsomal t1/2 (min)>  (12) 


>  <Mouse microsomal t1/2 (min)>  (12) 


>  <Rat microsomal t1/2 (min)>  (12) 


>  <Permeability (10-6 cm/s)>  (12) 


>  <Solubility (?g/mL)>  (12) 


$$$$
8
     RDKit          2D

 19 21  0  0  0  0  0  0  0  0999 V2000
   -0.8670   -0.4982    0.0000 C   0  0  0  0  0  0  0  0  0  0  0  0
   -0.0000   -0.0000    0.0000 C   0  0  0  0  0  0  0  0  0  0  0  0
    0.8650   -0.5018    0.0000 C   0  0  0  0  0  0  0  0  0  0  0  0
    0.8630   -1.5016    0.0000 C   0  0  0  0  0  0  0  0  0  0  0  0
    1.7280   -2.0034    0.0000 C   0  0  0  0  0  0  0  0  0  0  0  0
    2.5950   -1.5052    0.0000 C   0  0  0  0  0  0  0  0  0  0  0  0
    2.5970   -0.5052    0.0000 C   0  0  0  0  0  0  0  0  0  0  0  0
    1.7320   -0.0034    0.0000 C   0  0  0  0  0  0  0  0  0  0  0  0
    0.0020    1.0000    0.0000 C   0  0  0  0  0  0  0  0  0  0  0  0
    0.8690    1.4982    0.0000 C   0  0  0  0  0  0  0  0  0  0  0  0
    0.8710    2.4982    0.0000 C   0  0  0  0  0  0  0  0  0  0  0  0
    0.0060    3.0000    0.0000 N   0  0  0  0  0  0  0  0  0  0  0  0
   -0.8610    2.5016    0.0000 C   0  0  0  0  0  0  0  0  0  0  0  0
   -0.8630    1.5016    0.0000 C   0  0  0  0  0  0  0  0  0  0  0  0
   -1.7320    0.0034    0.0000 C   0  0  0  0  0  0  0  0  0  0  0  0
   -2.5990   -0.4948    0.0000 C   0  0  0  0  0  0  0  0  0  0  0  0
   -2.6010   -1.4948    0.0000 C   0  0  0  0  0  0  0  0  0  0  0  0
   -1.7360   -1.9964    0.0000 C   0  0  0  0  0  0  0  0  0  0  0  0
   -0.8690   -1.4982    0.0000 C   0  0  0  0  0  0  0  0  0  0  0  0
  1  2  1  0
  2  3  1  0
  3  4  2  0
  4  5  1  0
  5  6  2  0
  6  7  1  0
  7  8  2  0
  2  9  1  0
  9 10  1  0
 10 11  1  0
 11 12  1  0
 12 13  1  0
 13 14  1  0
  1 15  2  0
 15 16  1  0
 16 17  2  0
 17 18  1  0
 18 19  2  0
 19  1  1  0
  8  3  1  0
 14  9  1  0
M  END
>  <HCV EC50 (uM)>  (13) 
0.072 +/- 0.002

>  <Huh 7.5.1 CC50 (uM)>  (13) 
32.5 +/- 0.1

>  <Selectivity Index>  (13) 
451

>  <HepG2 CC50 (uM)>  (13) 


>  <Primary human hepatocyte CC50 (uM)>  (13) 


>  <Selectivity index>  (13) 


>  <H1HR %DMSO at 10nM>  (13) 


>  <HCVsc %DMSO>  (13) 


>  <HCVpp %DMSO GT1a>  (13) 


>  <HCVpp %DMSO GT1b>  (13) 


>  <MLVpp %DMSO>  (13) 


>  <VSV-Gpp %DMSO>  (13) 


>  <Replicon %DMSO GT2a>  (13) 


>  <Human microsomal t1/2 (min)>  (13) 


>  <Mouse microsomal t1/2 (min)>  (13) 


>  <Rat microsomal t1/2 (min)>  (13) 


>  <Permeability (10-6 cm/s)>  (13) 


>  <Solubility (?g/mL)>  (13) 


$$$$
9
     RDKit          2D

 19 21  0  0  0  0  0  0  0  0999 V2000
   -2.6010   -1.4948    0.0000 C   0  0  0  0  0  0  0  0  0  0  0  0
   -2.5990   -0.4948    0.0000 C   0  0  0  0  0  0  0  0  0  0  0  0
   -1.7320    0.0034    0.0000 C   0  0  0  0  0  0  0  0  0  0  0  0
   -0.8670   -0.4982    0.0000 C   0  0  0  0  0  0  0  0  0  0  0  0
   -0.8690   -1.4982    0.0000 C   0  0  0  0  0  0  0  0  0  0  0  0
   -1.7360   -1.9964    0.0000 C   0  0  0  0  0  0  0  0  0  0  0  0
   -0.0000   -0.0000    0.0000 C   0  0  0  0  0  0  0  0  0  0  0  0
    0.8650   -0.5018    0.0000 C   0  0  0  0  0  0  0  0  0  0  0  0
    0.8630   -1.5016    0.0000 C   0  0  0  0  0  0  0  0  0  0  0  0
    1.7280   -2.0034    0.0000 C   0  0  0  0  0  0  0  0  0  0  0  0
    2.5950   -1.5052    0.0000 C   0  0  0  0  0  0  0  0  0  0  0  0
    2.5970   -0.5052    0.0000 C   0  0  0  0  0  0  0  0  0  0  0  0
    1.7320   -0.0034    0.0000 C   0  0  0  0  0  0  0  0  0  0  0  0
    0.0020    1.0000    0.0000 C   0  0  0  0  0  0  0  0  0  0  0  0
    0.8690    1.4982    0.0000 C   0  0  0  0  0  0  0  0  0  0  0  0
    0.8710    2.4982    0.0000 C   0  0  0  0  0  0  0  0  0  0  0  0
    0.0060    3.0000    0.0000 N   0  0  0  0  0  0  0  0  0  0  0  0
   -0.8610    2.5016    0.0000 C   0  0  0  0  0  0  0  0  0  0  0  0
   -0.8630    1.5016    0.0000 C   0  0  0  0  0  0  0  0  0  0  0  0
  1  2  2  0
  2  3  1  0
  3  4  2  0
  4  5  1  0
  5  6  2  0
  4  7  1  0
  7  8  1  0
  8  9  2  0
  9 10  1  0
 10 11  2  0
 11 12  1  0
 12 13  2  0
  7 14  1  0
 14 15  2  0
 15 16  1  0
 16 17  2  0
 17 18  1  0
 18 19  2  0
  6  1  1  0
 13  8  1  0
 19 14  1  0
M  END
>  <HCV EC50 (uM)>  (14) 
> 31.6

>  <Huh 7.5.1 CC50 (uM)>  (14) 
65.1 +/- 2.1

>  <Selectivity Index>  (14) 
< 2

>  <HepG2 CC50 (uM)>  (14) 


>  <Primary human hepatocyte CC50 (uM)>  (14) 


>  <Selectivity index>  (14) 


>  <H1HR %DMSO at 10nM>  (14) 


>  <HCVsc %DMSO>  (14) 


>  <HCVpp %DMSO GT1a>  (14) 


>  <HCVpp %DMSO GT1b>  (14) 


>  <MLVpp %DMSO>  (14) 


>  <VSV-Gpp %DMSO>  (14) 


>  <Replicon %DMSO GT2a>  (14) 


>  <Human microsomal t1/2 (min)>  (14) 


>  <Mouse microsomal t1/2 (min)>  (14) 


>  <Rat microsomal t1/2 (min)>  (14) 


>  <Permeability (10-6 cm/s)>  (14) 


>  <Solubility (?g/mL)>  (14) 


$$$$
(R)-10
     RDKit          2D

 22 24  0  0  0  0  0  0  0  0999 V2000
   -4.1322   -1.2534    0.0000 C   0  0  0  0  0  0  0  0  0  0  0  0
   -3.2658   -1.7526    0.0000 C   0  0  0  0  0  0  0  0  0  0  0  0
   -2.4002   -1.2520    0.0000 N   0  0  0  0  0  0  0  0  0  0  0  0
   -2.4010   -0.2520    0.0000 C   0  0  0  0  0  0  0  0  0  0  0  0
   -1.5354    0.2488    0.0000 C   0  0  0  0  0  0  0  0  0  0  0  0
   -0.6690   -0.2506    0.0000 N   0  0  0  0  0  0  0  0  0  0  0  0
   -0.6682   -1.2506    0.0000 C   0  0  0  0  0  0  0  0  0  0  0  0
   -1.5338   -1.7512    0.0000 C   0  0  0  0  0  0  0  0  0  0  0  0
    0.1966    0.2502    0.0000 C   0  0  0  0  0  0  0  0  0  0  0  0
    0.1958    1.2502    0.0000 C   0  0  0  0  0  0  0  0  0  0  0  0
    1.0614    1.7508    0.0000 C   0  0  0  0  0  0  0  0  0  0  0  0
    1.0606    2.7508    0.0000 C   0  0  0  0  0  0  0  0  0  0  0  0
    0.1942    3.2502    0.0000 C   0  0  0  0  0  0  0  0  0  0  0  0
   -0.6714    2.7494    0.0000 C   0  0  0  0  0  0  0  0  0  0  0  0
   -0.6706    1.7494    0.0000 C   0  0  0  0  0  0  0  0  0  0  0  0
    1.0630   -0.2492    0.0000 C   0  0  0  0  0  0  0  0  0  0  0  0
    1.0638   -1.2492    0.0000 C   0  0  0  0  0  0  0  0  0  0  0  0
    1.9302   -1.7484    0.0000 C   0  0  0  0  0  0  0  0  0  0  0  0
    2.7958   -1.2478    0.0000 C   0  0  0  0  0  0  0  0  0  0  0  0
    3.6622   -1.7472    0.0000 Cl  0  0  0  0  0  0  0  0  0  0  0  0
    2.7950   -0.2478    0.0000 C   0  0  0  0  0  0  0  0  0  0  0  0
    1.9286    0.2516    0.0000 C   0  0  0  0  0  0  0  0  0  0  0  0
  1  2  1  0
  2  3  1  0
  3  4  1  0
  4  5  1  0
  5  6  1  0
  6  7  1  0
  7  8  1  0
  9  6  1  6
  9 10  1  0
 10 11  2  0
 11 12  1  0
 12 13  2  0
 13 14  1  0
 14 15  2  0
  9 16  1  0
 16 17  2  0
 17 18  1  0
 18 19  2  0
 19 20  1  0
 19 21  1  0
 21 22  2  0
  8  3  1  0
 15 10  1  0
 22 16  1  0
M  END
>  <HCV EC50 (uM)>  (15) 
0.0099 +/- 0.0054

>  <Huh 7.5.1 CC50 (uM)>  (15) 
37.9 +/- 3.3

>  <Selectivity Index>  (15) 
3828

>  <HepG2 CC50 (uM)>  (15) 


>  <Primary human hepatocyte CC50 (uM)>  (15) 


>  <Selectivity index>  (15) 


>  <H1HR %DMSO at 10nM>  (15) 


>  <HCVsc %DMSO>  (15) 


>  <HCVpp %DMSO GT1a>  (15) 


>  <HCVpp %DMSO GT1b>  (15) 


>  <MLVpp %DMSO>  (15) 


>  <VSV-Gpp %DMSO>  (15) 


>  <Replicon %DMSO GT2a>  (15) 


>  <Human microsomal t1/2 (min)>  (15) 


>  <Mouse microsomal t1/2 (min)>  (15) 


>  <Rat microsomal t1/2 (min)>  (15) 


>  <Permeability (10-6 cm/s)>  (15) 


>  <Solubility (?g/mL)>  (15) 


$$$$
(S)-10
     RDKit          2D

 22 24  0  0  0  0  0  0  0  0999 V2000
   -4.1322   -1.2534    0.0000 C   0  0  0  0  0  0  0  0  0  0  0  0
   -3.2658   -1.7526    0.0000 C   0  0  0  0  0  0  0  0  0  0  0  0
   -2.4002   -1.2520    0.0000 N   0  0  0  0  0  0  0  0  0  0  0  0
   -2.4010   -0.2520    0.0000 C   0  0  0  0  0  0  0  0  0  0  0  0
   -1.5354    0.2488    0.0000 C   0  0  0  0  0  0  0  0  0  0  0  0
   -0.6690   -0.2506    0.0000 N   0  0  0  0  0  0  0  0  0  0  0  0
   -0.6682   -1.2506    0.0000 C   0  0  0  0  0  0  0  0  0  0  0  0
   -1.5338   -1.7512    0.0000 C   0  0  0  0  0  0  0  0  0  0  0  0
    0.1966    0.2502    0.0000 C   0  0  0  0  0  0  0  0  0  0  0  0
    0.1958    1.2502    0.0000 C   0  0  0  0  0  0  0  0  0  0  0  0
    1.0614    1.7508    0.0000 C   0  0  0  0  0  0  0  0  0  0  0  0
    1.0606    2.7508    0.0000 C   0  0  0  0  0  0  0  0  0  0  0  0
    0.1942    3.2502    0.0000 C   0  0  0  0  0  0  0  0  0  0  0  0
   -0.6714    2.7494    0.0000 C   0  0  0  0  0  0  0  0  0  0  0  0
   -0.6706    1.7494    0.0000 C   0  0  0  0  0  0  0  0  0  0  0  0
    1.0630   -0.2492    0.0000 C   0  0  0  0  0  0  0  0  0  0  0  0
    1.0638   -1.2492    0.0000 C   0  0  0  0  0  0  0  0  0  0  0  0
    1.9302   -1.7484    0.0000 C   0  0  0  0  0  0  0  0  0  0  0  0
    2.7958   -1.2478    0.0000 C   0  0  0  0  0  0  0  0  0  0  0  0
    3.6622   -1.7472    0.0000 Cl  0  0  0  0  0  0  0  0  0  0  0  0
    2.7950   -0.2478    0.0000 C   0  0  0  0  0  0  0  0  0  0  0  0
    1.9286    0.2516    0.0000 C   0  0  0  0  0  0  0  0  0  0  0  0
  1  2  1  0
  2  3  1  0
  3  4  1  0
  4  5  1  0
  5  6  1  0
  6  7  1  0
  7  8  1  0
  9  6  1  1
  9 10  1  0
 10 11  2  0
 11 12  1  0
 12 13  2  0
 13 14  1  0
 14 15  2  0
  9 16  1  0
 16 17  2  0
 17 18  1  0
 18 19  2  0
 19 20  1  0
 19 21  1  0
 21 22  2  0
  8  3  1  0
 15 10  1  0
 22 16  1  0
M  END
>  <HCV EC50 (uM)>  (16) 
0.027 +/- 0.005

>  <Huh 7.5.1 CC50 (uM)>  (16) 
40.0 +/- 1.1

>  <Selectivity Index>  (16) 
1600

>  <HepG2 CC50 (uM)>  (16) 
68.9

>  <Primary human hepatocyte CC50 (uM)>  (16) 
> 31.6

>  <Selectivity index>  (16) 
1481

>  <H1HR %DMSO at 10nM>  (16) 
60.7

>  <HCVsc %DMSO>  (16) 
2

>  <HCVpp %DMSO GT1a>  (16) 
NT

>  <HCVpp %DMSO GT1b>  (16) 
NT

>  <MLVpp %DMSO>  (16) 
NT

>  <VSV-Gpp %DMSO>  (16) 
NT

>  <Replicon %DMSO GT2a>  (16) 
NT

>  <Human microsomal t1/2 (min)>  (16) 
NT

>  <Mouse microsomal t1/2 (min)>  (16) 
NT

>  <Rat microsomal t1/2 (min)>  (16) 
NT

>  <Permeability (10-6 cm/s)>  (16) 
514.5

>  <Solubility (?g/mL)>  (16) 
12.3

$$$$
(R)-11
     RDKit          2D

 23 25  0  0  0  0  0  0  0  0999 V2000
   -4.7805   -1.6776    0.0000 C   0  0  0  0  0  0  0  0  0  0  0  0
   -3.9149   -1.1770    0.0000 C   0  0  0  0  0  0  0  0  0  0  0  0
   -3.0485   -1.6764    0.0000 C   0  0  0  0  0  0  0  0  0  0  0  0
   -2.1829   -1.1756    0.0000 N   0  0  0  0  0  0  0  0  0  0  0  0
   -2.1837   -0.1756    0.0000 C   0  0  0  0  0  0  0  0  0  0  0  0
   -1.3181    0.3250    0.0000 C   0  0  0  0  0  0  0  0  0  0  0  0
   -0.4517   -0.1742    0.0000 N   0  0  0  0  0  0  0  0  0  0  0  0
   -0.4509   -1.1742    0.0000 C   0  0  0  0  0  0  0  0  0  0  0  0
   -1.3165   -1.6748    0.0000 C   0  0  0  0  0  0  0  0  0  0  0  0
    0.4139    0.3264    0.0000 C   0  0  0  0  0  0  0  0  0  0  0  0
    0.4131    1.3266    0.0000 C   0  0  0  0  0  0  0  0  0  0  0  0
    1.2787    1.8270    0.0000 C   0  0  0  0  0  0  0  0  0  0  0  0
    1.2779    2.8272    0.0000 C   0  0  0  0  0  0  0  0  0  0  0  0
    0.4115    3.3264    0.0000 C   0  0  0  0  0  0  0  0  0  0  0  0
   -0.4541    2.8258    0.0000 C   0  0  0  0  0  0  0  0  0  0  0  0
   -0.4533    1.8258    0.0000 C   0  0  0  0  0  0  0  0  0  0  0  0
    1.2803   -0.1728    0.0000 C   0  0  0  0  0  0  0  0  0  0  0  0
    1.2811   -1.1730    0.0000 C   0  0  0  0  0  0  0  0  0  0  0  0
    2.1475   -1.6720    0.0000 C   0  0  0  0  0  0  0  0  0  0  0  0
    3.0131   -1.1716    0.0000 C   0  0  0  0  0  0  0  0  0  0  0  0
    3.8795   -1.6708    0.0000 Cl  0  0  0  0  0  0  0  0  0  0  0  0
    3.0123   -0.1714    0.0000 C   0  0  0  0  0  0  0  0  0  0  0  0
    2.1459    0.3278    0.0000 C   0  0  0  0  0  0  0  0  0  0  0  0
  1  2  1  0
  2  3  1  0
  3  4  1  0
  4  5  1  0
  5  6  1  0
  6  7  1  0
  7  8  1  0
  8  9  1  0
 10  7  1  6
 10 11  1  0
 11 12  2  0
 12 13  1  0
 13 14  2  0
 14 15  1  0
 15 16  2  0
 10 17  1  0
 17 18  2  0
 18 19  1  0
 19 20  2  0
 20 21  1  0
 20 22  1  0
 22 23  2  0
  9  4  1  0
 16 11  1  0
 23 17  1  0
M  END
>  <HCV EC50 (uM)>  (17) 
0.024 +/- 0.005

>  <Huh 7.5.1 CC50 (uM)>  (17) 
48.5 +/- 1.1

>  <Selectivity Index>  (17) 
2021

>  <HepG2 CC50 (uM)>  (17) 


>  <Primary human hepatocyte CC50 (uM)>  (17) 


>  <Selectivity index>  (17) 


>  <H1HR %DMSO at 10nM>  (17) 


>  <HCVsc %DMSO>  (17) 


>  <HCVpp %DMSO GT1a>  (17) 


>  <HCVpp %DMSO GT1b>  (17) 


>  <MLVpp %DMSO>  (17) 


>  <VSV-Gpp %DMSO>  (17) 


>  <Replicon %DMSO GT2a>  (17) 


>  <Human microsomal t1/2 (min)>  (17) 


>  <Mouse microsomal t1/2 (min)>  (17) 


>  <Rat microsomal t1/2 (min)>  (17) 


>  <Permeability (10-6 cm/s)>  (17) 


>  <Solubility (?g/mL)>  (17) 


$$$$
(S)-11
     RDKit          2D

 23 25  0  0  0  0  0  0  0  0999 V2000
   -4.7805   -1.6776    0.0000 C   0  0  0  0  0  0  0  0  0  0  0  0
   -3.9149   -1.1770    0.0000 C   0  0  0  0  0  0  0  0  0  0  0  0
   -3.0485   -1.6764    0.0000 C   0  0  0  0  0  0  0  0  0  0  0  0
   -2.1829   -1.1756    0.0000 N   0  0  0  0  0  0  0  0  0  0  0  0
   -2.1837   -0.1756    0.0000 C   0  0  0  0  0  0  0  0  0  0  0  0
   -1.3181    0.3250    0.0000 C   0  0  0  0  0  0  0  0  0  0  0  0
   -0.4517   -0.1742    0.0000 N   0  0  0  0  0  0  0  0  0  0  0  0
   -0.4509   -1.1742    0.0000 C   0  0  0  0  0  0  0  0  0  0  0  0
   -1.3165   -1.6748    0.0000 C   0  0  0  0  0  0  0  0  0  0  0  0
    0.4139    0.3264    0.0000 C   0  0  0  0  0  0  0  0  0  0  0  0
    0.4131    1.3266    0.0000 C   0  0  0  0  0  0  0  0  0  0  0  0
    1.2787    1.8270    0.0000 C   0  0  0  0  0  0  0  0  0  0  0  0
    1.2779    2.8272    0.0000 C   0  0  0  0  0  0  0  0  0  0  0  0
    0.4115    3.3264    0.0000 C   0  0  0  0  0  0  0  0  0  0  0  0
   -0.4541    2.8258    0.0000 C   0  0  0  0  0  0  0  0  0  0  0  0
   -0.4533    1.8258    0.0000 C   0  0  0  0  0  0  0  0  0  0  0  0
    1.2803   -0.1728    0.0000 C   0  0  0  0  0  0  0  0  0  0  0  0
    1.2811   -1.1730    0.0000 C   0  0  0  0  0  0  0  0  0  0  0  0
    2.1475   -1.6720    0.0000 C   0  0  0  0  0  0  0  0  0  0  0  0
    3.0131   -1.1716    0.0000 C   0  0  0  0  0  0  0  0  0  0  0  0
    3.8795   -1.6708    0.0000 Cl  0  0  0  0  0  0  0  0  0  0  0  0
    3.0123   -0.1714    0.0000 C   0  0  0  0  0  0  0  0  0  0  0  0
    2.1459    0.3278    0.0000 C   0  0  0  0  0  0  0  0  0  0  0  0
  1  2  1  0
  2  3  1  0
  3  4  1  0
  4  5  1  0
  5  6  1  0
  6  7  1  0
  7  8  1  0
  8  9  1  0
 10  7  1  1
 10 11  1  0
 11 12  2  0
 12 13  1  0
 13 14  2  0
 14 15  1  0
 15 16  2  0
 10 17  1  0
 17 18  2  0
 18 19  1  0
 19 20  2  0
 20 21  1  0
 20 22  1  0
 22 23  2  0
  9  4  1  0
 16 11  1  0
 23 17  1  0
M  END
>  <HCV EC50 (uM)>  (18) 
0.032 +/- 0.018

>  <Huh 7.5.1 CC50 (uM)>  (18) 
39.7 +/- 0.9

>  <Selectivity Index>  (18) 
1241

>  <HepG2 CC50 (uM)>  (18) 


>  <Primary human hepatocyte CC50 (uM)>  (18) 


>  <Selectivity index>  (18) 


>  <H1HR %DMSO at 10nM>  (18) 


>  <HCVsc %DMSO>  (18) 


>  <HCVpp %DMSO GT1a>  (18) 


>  <HCVpp %DMSO GT1b>  (18) 


>  <MLVpp %DMSO>  (18) 


>  <VSV-Gpp %DMSO>  (18) 


>  <Replicon %DMSO GT2a>  (18) 


>  <Human microsomal t1/2 (min)>  (18) 


>  <Mouse microsomal t1/2 (min)>  (18) 


>  <Rat microsomal t1/2 (min)>  (18) 


>  <Permeability (10-6 cm/s)>  (18) 


>  <Solubility (?g/mL)>  (18) 


$$$$
(R)-12
     RDKit          2D

 24 26  0  0  0  0  0  0  0  0999 V2000
   -5.4116   -1.1293    0.0000 C   0  0  0  0  0  0  0  0  0  0  0  0
   -4.5452   -1.6287    0.0000 C   0  0  0  0  0  0  0  0  0  0  0  0
   -3.6796   -1.1279    0.0000 C   0  0  0  0  0  0  0  0  0  0  0  0
   -2.8132   -1.6273    0.0000 C   0  0  0  0  0  0  0  0  0  0  0  0
   -1.9476   -1.1265    0.0000 N   0  0  0  0  0  0  0  0  0  0  0  0
   -1.9484   -0.1265    0.0000 C   0  0  0  0  0  0  0  0  0  0  0  0
   -1.0828    0.3741    0.0000 C   0  0  0  0  0  0  0  0  0  0  0  0
   -0.2164   -0.1251    0.0000 N   0  0  0  0  0  0  0  0  0  0  0  0
   -0.2156   -1.1253    0.0000 C   0  0  0  0  0  0  0  0  0  0  0  0
   -1.0812   -1.6257    0.0000 C   0  0  0  0  0  0  0  0  0  0  0  0
    0.6492    0.3755    0.0000 C   0  0  0  0  0  0  0  0  0  0  0  0
    0.6484    1.3755    0.0000 C   0  0  0  0  0  0  0  0  0  0  0  0
    1.5140    1.8761    0.0000 C   0  0  0  0  0  0  0  0  0  0  0  0
    1.5132    2.8763    0.0000 C   0  0  0  0  0  0  0  0  0  0  0  0
    0.6468    3.3755    0.0000 C   0  0  0  0  0  0  0  0  0  0  0  0
   -0.2188    2.8749    0.0000 C   0  0  0  0  0  0  0  0  0  0  0  0
   -0.2180    1.8747    0.0000 C   0  0  0  0  0  0  0  0  0  0  0  0
    1.5156   -0.1237    0.0000 C   0  0  0  0  0  0  0  0  0  0  0  0
    1.5164   -1.1239    0.0000 C   0  0  0  0  0  0  0  0  0  0  0  0
    2.3828   -1.6231    0.0000 C   0  0  0  0  0  0  0  0  0  0  0  0
    3.2484   -1.1225    0.0000 C   0  0  0  0  0  0  0  0  0  0  0  0
    4.1148   -1.6217    0.0000 Cl  0  0  0  0  0  0  0  0  0  0  0  0
    3.2476   -0.1223    0.0000 C   0  0  0  0  0  0  0  0  0  0  0  0
    2.3812    0.3769    0.0000 C   0  0  0  0  0  0  0  0  0  0  0  0
  1  2  1  0
  2  3  1  0
  3  4  1  0
  4  5  1  0
  5  6  1  0
  6  7  1  0
  7  8  1  0
  8  9  1  0
  9 10  1  0
 11  8  1  6
 11 12  1  0
 12 13  2  0
 13 14  1  0
 14 15  2  0
 15 16  1  0
 16 17  2  0
 11 18  1  0
 18 19  2  0
 19 20  1  0
 20 21  2  0
 21 22  1  0
 21 23  1  0
 23 24  2  0
 10  5  1  0
 17 12  1  0
 24 18  1  0
M  END
>  <HCV EC50 (uM)>  (19) 
0.195 +/- 0.084

>  <Huh 7.5.1 CC50 (uM)>  (19) 
40.8 +/- 0.4

>  <Selectivity Index>  (19) 
209

>  <HepG2 CC50 (uM)>  (19) 


>  <Primary human hepatocyte CC50 (uM)>  (19) 


>  <Selectivity index>  (19) 


>  <H1HR %DMSO at 10nM>  (19) 


>  <HCVsc %DMSO>  (19) 


>  <HCVpp %DMSO GT1a>  (19) 


>  <HCVpp %DMSO GT1b>  (19) 


>  <MLVpp %DMSO>  (19) 


>  <VSV-Gpp %DMSO>  (19) 


>  <Replicon %DMSO GT2a>  (19) 


>  <Human microsomal t1/2 (min)>  (19) 


>  <Mouse microsomal t1/2 (min)>  (19) 


>  <Rat microsomal t1/2 (min)>  (19) 


>  <Permeability (10-6 cm/s)>  (19) 


>  <Solubility (?g/mL)>  (19) 


$$$$
(S)-12
     RDKit          2D

 24 26  0  0  0  0  0  0  0  0999 V2000
   -5.4116   -1.1293    0.0000 C   0  0  0  0  0  0  0  0  0  0  0  0
   -4.5452   -1.6287    0.0000 C   0  0  0  0  0  0  0  0  0  0  0  0
   -3.6796   -1.1279    0.0000 C   0  0  0  0  0  0  0  0  0  0  0  0
   -2.8132   -1.6273    0.0000 C   0  0  0  0  0  0  0  0  0  0  0  0
   -1.9476   -1.1265    0.0000 N   0  0  0  0  0  0  0  0  0  0  0  0
   -1.9484   -0.1265    0.0000 C   0  0  0  0  0  0  0  0  0  0  0  0
   -1.0828    0.3741    0.0000 C   0  0  0  0  0  0  0  0  0  0  0  0
   -0.2164   -0.1251    0.0000 N   0  0  0  0  0  0  0  0  0  0  0  0
   -0.2156   -1.1253    0.0000 C   0  0  0  0  0  0  0  0  0  0  0  0
   -1.0812   -1.6257    0.0000 C   0  0  0  0  0  0  0  0  0  0  0  0
    0.6492    0.3755    0.0000 C   0  0  0  0  0  0  0  0  0  0  0  0
    0.6484    1.3755    0.0000 C   0  0  0  0  0  0  0  0  0  0  0  0
    1.5140    1.8761    0.0000 C   0  0  0  0  0  0  0  0  0  0  0  0
    1.5132    2.8763    0.0000 C   0  0  0  0  0  0  0  0  0  0  0  0
    0.6468    3.3755    0.0000 C   0  0  0  0  0  0  0  0  0  0  0  0
   -0.2188    2.8749    0.0000 C   0  0  0  0  0  0  0  0  0  0  0  0
   -0.2180    1.8747    0.0000 C   0  0  0  0  0  0  0  0  0  0  0  0
    1.5156   -0.1237    0.0000 C   0  0  0  0  0  0  0  0  0  0  0  0
    1.5164   -1.1239    0.0000 C   0  0  0  0  0  0  0  0  0  0  0  0
    2.3828   -1.6231    0.0000 C   0  0  0  0  0  0  0  0  0  0  0  0
    3.2484   -1.1225    0.0000 C   0  0  0  0  0  0  0  0  0  0  0  0
    4.1148   -1.6217    0.0000 Cl  0  0  0  0  0  0  0  0  0  0  0  0
    3.2476   -0.1223    0.0000 C   0  0  0  0  0  0  0  0  0  0  0  0
    2.3812    0.3769    0.0000 C   0  0  0  0  0  0  0  0  0  0  0  0
  1  2  1  0
  2  3  1  0
  3  4  1  0
  4  5  1  0
  5  6  1  0
  6  7  1  0
  7  8  1  0
  8  9  1  0
  9 10  1  0
 11  8  1  1
 11 12  1  0
 12 13  2  0
 13 14  1  0
 14 15  2  0
 15 16  1  0
 16 17  2  0
 11 18  1  0
 18 19  2  0
 19 20  1  0
 20 21  2  0
 21 22  1  0
 21 23  1  0
 23 24  2  0
 10  5  1  0
 17 12  1  0
 24 18  1  0
M  END
>  <HCV EC50 (uM)>  (20) 
0.042 +/- 0.023

>  <Huh 7.5.1 CC50 (uM)>  (20) 
31.1 +/- 4.2

>  <Selectivity Index>  (20) 
740

>  <HepG2 CC50 (uM)>  (20) 


>  <Primary human hepatocyte CC50 (uM)>  (20) 


>  <Selectivity index>  (20) 


>  <H1HR %DMSO at 10nM>  (20) 


>  <HCVsc %DMSO>  (20) 


>  <HCVpp %DMSO GT1a>  (20) 


>  <HCVpp %DMSO GT1b>  (20) 


>  <MLVpp %DMSO>  (20) 


>  <VSV-Gpp %DMSO>  (20) 


>  <Replicon %DMSO GT2a>  (20) 


>  <Human microsomal t1/2 (min)>  (20) 


>  <Mouse microsomal t1/2 (min)>  (20) 


>  <Rat microsomal t1/2 (min)>  (20) 


>  <Permeability (10-6 cm/s)>  (20) 


>  <Solubility (?g/mL)>  (20) 


$$$$
(R)-13
     RDKit          2D

 24 26  0  0  0  0  0  0  0  0999 V2000
   -4.6173   -1.6703    0.0000 C   0  0  0  0  0  0  0  0  0  0  0  0
   -3.7517   -1.1697    0.0000 C   0  0  0  0  0  0  0  0  0  0  0  0
   -3.7525   -0.1697    0.0000 C   0  0  0  0  0  0  0  0  0  0  0  0
   -2.8853   -1.6689    0.0000 C   0  0  0  0  0  0  0  0  0  0  0  0
   -2.0197   -1.1683    0.0000 N   0  0  0  0  0  0  0  0  0  0  0  0
   -2.0205   -0.1683    0.0000 C   0  0  0  0  0  0  0  0  0  0  0  0
   -1.1549    0.3323    0.0000 C   0  0  0  0  0  0  0  0  0  0  0  0
   -0.2885   -0.1669    0.0000 N   0  0  0  0  0  0  0  0  0  0  0  0
   -0.2877   -1.1669    0.0000 C   0  0  0  0  0  0  0  0  0  0  0  0
   -1.1533   -1.6675    0.0000 C   0  0  0  0  0  0  0  0  0  0  0  0
    0.5771    0.3337    0.0000 C   0  0  0  0  0  0  0  0  0  0  0  0
    0.5763    1.3339    0.0000 C   0  0  0  0  0  0  0  0  0  0  0  0
    1.4419    1.8345    0.0000 C   0  0  0  0  0  0  0  0  0  0  0  0
    1.4411    2.8345    0.0000 C   0  0  0  0  0  0  0  0  0  0  0  0
    0.5747    3.3337    0.0000 C   0  0  0  0  0  0  0  0  0  0  0  0
   -0.2909    2.8331    0.0000 C   0  0  0  0  0  0  0  0  0  0  0  0
   -0.2901    1.8331    0.0000 C   0  0  0  0  0  0  0  0  0  0  0  0
    1.4435   -0.1655    0.0000 C   0  0  0  0  0  0  0  0  0  0  0  0
    1.4443   -1.1655    0.0000 C   0  0  0  0  0  0  0  0  0  0  0  0
    2.3107   -1.6647    0.0000 C   0  0  0  0  0  0  0  0  0  0  0  0
    3.1763   -1.1643    0.0000 C   0  0  0  0  0  0  0  0  0  0  0  0
    4.0427   -1.6635    0.0000 Cl  0  0  0  0  0  0  0  0  0  0  0  0
    3.1755   -0.1641    0.0000 C   0  0  0  0  0  0  0  0  0  0  0  0
    2.3091    0.3351    0.0000 C   0  0  0  0  0  0  0  0  0  0  0  0
  1  2  1  0
  2  3  1  0
  2  4  1  0
  4  5  1  0
  5  6  1  0
  6  7  1  0
  7  8  1  0
  8  9  1  0
  9 10  1  0
 11  8  1  6
 11 12  1  0
 12 13  2  0
 13 14  1  0
 14 15  2  0
 15 16  1  0
 16 17  2  0
 11 18  1  0
 18 19  2  0
 19 20  1  0
 20 21  2  0
 21 22  1  0
 21 23  1  0
 23 24  2  0
 10  5  1  0
 17 12  1  0
 24 18  1  0
M  END
>  <HCV EC50 (uM)>  (21) 
0.232 +/- 0.061

>  <Huh 7.5.1 CC50 (uM)>  (21) 
58.2 +/- 7.2

>  <Selectivity Index>  (21) 
251

>  <HepG2 CC50 (uM)>  (21) 


>  <Primary human hepatocyte CC50 (uM)>  (21) 


>  <Selectivity index>  (21) 


>  <H1HR %DMSO at 10nM>  (21) 


>  <HCVsc %DMSO>  (21) 


>  <HCVpp %DMSO GT1a>  (21) 


>  <HCVpp %DMSO GT1b>  (21) 


>  <MLVpp %DMSO>  (21) 


>  <VSV-Gpp %DMSO>  (21) 


>  <Replicon %DMSO GT2a>  (21) 


>  <Human microsomal t1/2 (min)>  (21) 


>  <Mouse microsomal t1/2 (min)>  (21) 


>  <Rat microsomal t1/2 (min)>  (21) 


>  <Permeability (10-6 cm/s)>  (21) 


>  <Solubility (?g/mL)>  (21) 


$$$$
(S)-13
     RDKit          2D

 24 26  0  0  0  0  0  0  0  0999 V2000
   -4.6173   -1.6703    0.0000 C   0  0  0  0  0  0  0  0  0  0  0  0
   -3.7517   -1.1697    0.0000 C   0  0  0  0  0  0  0  0  0  0  0  0
   -3.7525   -0.1697    0.0000 C   0  0  0  0  0  0  0  0  0  0  0  0
   -2.8853   -1.6689    0.0000 C   0  0  0  0  0  0  0  0  0  0  0  0
   -2.0197   -1.1683    0.0000 N   0  0  0  0  0  0  0  0  0  0  0  0
   -2.0205   -0.1683    0.0000 C   0  0  0  0  0  0  0  0  0  0  0  0
   -1.1549    0.3323    0.0000 C   0  0  0  0  0  0  0  0  0  0  0  0
   -0.2885   -0.1669    0.0000 N   0  0  0  0  0  0  0  0  0  0  0  0
   -0.2877   -1.1669    0.0000 C   0  0  0  0  0  0  0  0  0  0  0  0
   -1.1533   -1.6675    0.0000 C   0  0  0  0  0  0  0  0  0  0  0  0
    0.5771    0.3337    0.0000 C   0  0  0  0  0  0  0  0  0  0  0  0
    0.5763    1.3339    0.0000 C   0  0  0  0  0  0  0  0  0  0  0  0
    1.4419    1.8345    0.0000 C   0  0  0  0  0  0  0  0  0  0  0  0
    1.4411    2.8345    0.0000 C   0  0  0  0  0  0  0  0  0  0  0  0
    0.5747    3.3337    0.0000 C   0  0  0  0  0  0  0  0  0  0  0  0
   -0.2909    2.8331    0.0000 C   0  0  0  0  0  0  0  0  0  0  0  0
   -0.2901    1.8331    0.0000 C   0  0  0  0  0  0  0  0  0  0  0  0
    1.4435   -0.1655    0.0000 C   0  0  0  0  0  0  0  0  0  0  0  0
    1.4443   -1.1655    0.0000 C   0  0  0  0  0  0  0  0  0  0  0  0
    2.3107   -1.6647    0.0000 C   0  0  0  0  0  0  0  0  0  0  0  0
    3.1763   -1.1643    0.0000 C   0  0  0  0  0  0  0  0  0  0  0  0
    4.0427   -1.6635    0.0000 Cl  0  0  0  0  0  0  0  0  0  0  0  0
    3.1755   -0.1641    0.0000 C   0  0  0  0  0  0  0  0  0  0  0  0
    2.3091    0.3351    0.0000 C   0  0  0  0  0  0  0  0  0  0  0  0
  1  2  1  0
  2  3  1  0
  2  4  1  0
  4  5  1  0
  5  6  1  0
  6  7  1  0
  7  8  1  0
  8  9  1  0
  9 10  1  0
 11  8  1  1
 11 12  1  0
 12 13  2  0
 13 14  1  0
 14 15  2  0
 15 16  1  0
 16 17  2  0
 11 18  1  0
 18 19  2  0
 19 20  1  0
 20 21  2  0
 21 22  1  0
 21 23  1  0
 23 24  2  0
 10  5  1  0
 17 12  1  0
 24 18  1  0
M  END
>  <HCV EC50 (uM)>  (22) 
0.102 +/- 0.018

>  <Huh 7.5.1 CC50 (uM)>  (22) 
51.7 +/- 1.4

>  <Selectivity Index>  (22) 
507

>  <HepG2 CC50 (uM)>  (22) 


>  <Primary human hepatocyte CC50 (uM)>  (22) 


>  <Selectivity index>  (22) 


>  <H1HR %DMSO at 10nM>  (22) 


>  <HCVsc %DMSO>  (22) 


>  <HCVpp %DMSO GT1a>  (22) 


>  <HCVpp %DMSO GT1b>  (22) 


>  <MLVpp %DMSO>  (22) 


>  <VSV-Gpp %DMSO>  (22) 


>  <Replicon %DMSO GT2a>  (22) 


>  <Human microsomal t1/2 (min)>  (22) 


>  <Mouse microsomal t1/2 (min)>  (22) 


>  <Rat microsomal t1/2 (min)>  (22) 


>  <Permeability (10-6 cm/s)>  (22) 


>  <Solubility (?g/mL)>  (22) 


$$$$
(S)-14
     RDKit          2D

 31 34  0  0  0  0  0  0  0  0999 V2000
   -5.0591    1.2964    0.0000 C   0  0  0  0  0  0  0  0  0  0  0  0
   -5.0571    0.2964    0.0000 O   0  0  0  0  0  0  0  0  0  0  0  0
   -4.1899   -0.2018    0.0000 C   0  0  0  0  0  0  0  0  0  0  0  0
   -3.3249    0.2998    0.0000 C   0  0  0  0  0  0  0  0  0  0  0  0
   -2.4579   -0.1984    0.0000 C   0  0  0  0  0  0  0  0  0  0  0  0
   -2.4559   -1.1984    0.0000 C   0  0  0  0  0  0  0  0  0  0  0  0
   -1.5889   -1.6966    0.0000 C   0  0  0  0  0  0  0  0  0  0  0  0
   -0.7239   -1.1950    0.0000 N   0  0  0  0  0  0  0  0  0  0  0  0
    0.1431   -1.6932    0.0000 C   0  0  0  0  0  0  0  0  0  0  0  0
    1.0081   -1.1914    0.0000 C   0  0  0  0  0  0  0  0  0  0  0  0
    1.0061   -0.1916    0.0000 N   0  0  0  0  0  0  0  0  0  0  0  0
    0.1391    0.3068    0.0000 C   0  0  0  0  0  0  0  0  0  0  0  0
   -0.7259   -0.1950    0.0000 C   0  0  0  0  0  0  0  0  0  0  0  0
    1.8711    0.3102    0.0000 C   0  0  0  0  0  0  0  0  0  0  0  0
    2.7381   -0.1880    0.0000 C   0  0  0  0  0  0  0  0  0  0  0  0
    3.6031    0.3136    0.0000 C   0  0  0  0  0  0  0  0  0  0  0  0
    4.4701   -0.1846    0.0000 C   0  0  0  0  0  0  0  0  0  0  0  0
    4.4723   -1.1846    0.0000 C   0  0  0  0  0  0  0  0  0  0  0  0
    3.6073   -1.6862    0.0000 C   0  0  0  0  0  0  0  0  0  0  0  0
    2.7401   -1.1880    0.0000 C   0  0  0  0  0  0  0  0  0  0  0  0
    1.8691    1.3102    0.0000 C   0  0  0  0  0  0  0  0  0  0  0  0
    1.0021    1.8084    0.0000 C   0  0  0  0  0  0  0  0  0  0  0  0
    1.0001    2.8084    0.0000 C   0  0  0  0  0  0  0  0  0  0  0  0
    1.8651    3.3102    0.0000 C   0  0  0  0  0  0  0  0  0  0  0  0
    1.8631    4.3102    0.0000 Cl  0  0  0  0  0  0  0  0  0  0  0  0
    2.7321    2.8118    0.0000 C   0  0  0  0  0  0  0  0  0  0  0  0
    2.7341    1.8118    0.0000 C   0  0  0  0  0  0  0  0  0  0  0  0
   -3.3209   -1.7002    0.0000 C   0  0  0  0  0  0  0  0  0  0  0  0
   -4.1879   -1.2018    0.0000 C   0  0  0  0  0  0  0  0  0  0  0  0
   -3.3189   -2.7000    0.0000 O   0  0  0  0  0  0  0  0  0  0  0  0
   -2.4519   -3.1984    0.0000 C   0  0  0  0  0  0  0  0  0  0  0  0
  1  2  1  0
  2  3  1  0
  3  4  2  0
  4  5  1  0
  5  6  2  0
  6  7  1  0
  7  8  1  0
  8  9  1  0
  9 10  1  0
 10 11  1  0
 11 12  1  0
 12 13  1  0
 14 11  1  6
 14 15  1  0
 15 16  2  0
 16 17  1  0
 17 18  2  0
 18 19  1  0
 19 20  2  0
 14 21  1  0
 21 22  2  0
 22 23  1  0
 23 24  2  0
 24 25  1  0
 24 26  1  0
 26 27  2  0
  6 28  1  0
 28 29  2  0
 28 30  1  0
 30 31  1  0
 29  3  1  0
 13  8  1  0
 20 15  1  0
 27 21  1  0
M  END
>  <HCV EC50 (uM)>  (23) 
0.456 +/- 0.235

>  <Huh 7.5.1 CC50 (uM)>  (23) 
38.4 +/- 4.2

>  <Selectivity Index>  (23) 
84

>  <HepG2 CC50 (uM)>  (23) 


>  <Primary human hepatocyte CC50 (uM)>  (23) 


>  <Selectivity index>  (23) 


>  <H1HR %DMSO at 10nM>  (23) 


>  <HCVsc %DMSO>  (23) 


>  <HCVpp %DMSO GT1a>  (23) 


>  <HCVpp %DMSO GT1b>  (23) 


>  <MLVpp %DMSO>  (23) 


>  <VSV-Gpp %DMSO>  (23) 


>  <Replicon %DMSO GT2a>  (23) 


>  <Human microsomal t1/2 (min)>  (23) 


>  <Mouse microsomal t1/2 (min)>  (23) 


>  <Rat microsomal t1/2 (min)>  (23) 


>  <Permeability (10-6 cm/s)>  (23) 


>  <Solubility (?g/mL)>  (23) 


$$$$
(R)-15
     RDKit          2D

 25 27  0  0  0  0  0  0  0  0999 V2000
   -4.1322   -1.2533    0.0000 C   0  0  0  0  0  0  0  0  0  0  0  0
   -3.2658   -1.7525    0.0000 C   0  0  0  0  0  0  0  0  0  0  0  0
   -2.4002   -1.2519    0.0000 N   0  0  0  0  0  0  0  0  0  0  0  0
   -2.4010   -0.2519    0.0000 C   0  0  0  0  0  0  0  0  0  0  0  0
   -1.5354    0.2487    0.0000 C   0  0  0  0  0  0  0  0  0  0  0  0
   -0.6690   -0.2505    0.0000 N   0  0  0  0  0  0  0  0  0  0  0  0
   -0.6682   -1.2505    0.0000 C   0  0  0  0  0  0  0  0  0  0  0  0
   -1.5338   -1.7513    0.0000 C   0  0  0  0  0  0  0  0  0  0  0  0
    0.1966    0.2501    0.0000 C   0  0  0  0  0  0  0  0  0  0  0  0
    0.1958    1.2501    0.0000 C   0  0  0  0  0  0  0  0  0  0  0  0
    1.0614    1.7509    0.0000 C   0  0  0  0  0  0  0  0  0  0  0  0
    1.0606    2.7509    0.0000 C   0  0  0  0  0  0  0  0  0  0  0  0
    0.1942    3.2501    0.0000 C   0  0  0  0  0  0  0  0  0  0  0  0
   -0.6714    2.7495    0.0000 C   0  0  0  0  0  0  0  0  0  0  0  0
   -0.6706    1.7495    0.0000 C   0  0  0  0  0  0  0  0  0  0  0  0
    1.0630   -0.2491    0.0000 C   0  0  0  0  0  0  0  0  0  0  0  0
    1.0638   -1.2491    0.0000 C   0  0  0  0  0  0  0  0  0  0  0  0
    1.9302   -1.7485    0.0000 C   0  0  0  0  0  0  0  0  0  0  0  0
    2.7958   -1.2477    0.0000 C   0  0  0  0  0  0  0  0  0  0  0  0
    3.6622   -1.7471    0.0000 Cl  0  0  0  0  0  0  0  0  0  0  0  0
    2.7950   -0.2477    0.0000 C   0  0  0  0  0  0  0  0  0  0  0  0
    1.9286    0.2515    0.0000 C   0  0  0  0  0  0  0  0  0  0  0  0
   -3.6328   -0.3869    0.0000 H   0  0  0  0  0  0  0  0  0  0  0  0
   -4.6328   -0.3877    0.0000 H   0  0  0  0  0  0  0  0  0  0  0  0
   -4.9978   -1.7539    0.0000 H   0  0  0  0  0  0  0  0  0  0  0  0
  1  2  1  0
  2  3  1  0
  3  4  1  0
  4  5  1  0
  5  6  1  0
  6  7  1  0
  7  8  1  0
  9  6  1  6
  9 10  1  0
 10 11  2  0
 11 12  1  0
 12 13  2  0
 13 14  1  0
 14 15  2  0
  9 16  1  0
 16 17  2  0
 17 18  1  0
 18 19  2  0
 19 20  1  0
 19 21  1  0
 21 22  2  0
  1 23  1  0
  1 24  1  0
  1 25  1  0
  8  3  1  0
 15 10  1  0
 22 16  1  0
M  ISO  3  23   2  24   2  25   2
M  END
>  <HCV EC50 (uM)>  (24) 
0.035 +/- 0.008

>  <Huh 7.5.1 CC50 (uM)>  (24) 
81.5 +/- 0.5

>  <Selectivity Index>  (24) 
2329

>  <HepG2 CC50 (uM)>  (24) 


>  <Primary human hepatocyte CC50 (uM)>  (24) 


>  <Selectivity index>  (24) 


>  <H1HR %DMSO at 10nM>  (24) 


>  <HCVsc %DMSO>  (24) 


>  <HCVpp %DMSO GT1a>  (24) 


>  <HCVpp %DMSO GT1b>  (24) 


>  <MLVpp %DMSO>  (24) 


>  <VSV-Gpp %DMSO>  (24) 


>  <Replicon %DMSO GT2a>  (24) 


>  <Human microsomal t1/2 (min)>  (24) 


>  <Mouse microsomal t1/2 (min)>  (24) 


>  <Rat microsomal t1/2 (min)>  (24) 


>  <Permeability (10-6 cm/s)>  (24) 


>  <Solubility (?g/mL)>  (24) 


$$$$
(S)-15
     RDKit          2D

 25 27  0  0  0  0  0  0  0  0999 V2000
   -4.1322   -1.2533    0.0000 C   0  0  0  0  0  0  0  0  0  0  0  0
   -3.2658   -1.7525    0.0000 C   0  0  0  0  0  0  0  0  0  0  0  0
   -2.4002   -1.2519    0.0000 N   0  0  0  0  0  0  0  0  0  0  0  0
   -2.4010   -0.2519    0.0000 C   0  0  0  0  0  0  0  0  0  0  0  0
   -1.5354    0.2487    0.0000 C   0  0  0  0  0  0  0  0  0  0  0  0
   -0.6690   -0.2505    0.0000 N   0  0  0  0  0  0  0  0  0  0  0  0
   -0.6682   -1.2505    0.0000 C   0  0  0  0  0  0  0  0  0  0  0  0
   -1.5338   -1.7513    0.0000 C   0  0  0  0  0  0  0  0  0  0  0  0
    0.1966    0.2501    0.0000 C   0  0  0  0  0  0  0  0  0  0  0  0
    0.1958    1.2501    0.0000 C   0  0  0  0  0  0  0  0  0  0  0  0
    1.0614    1.7509    0.0000 C   0  0  0  0  0  0  0  0  0  0  0  0
    1.0606    2.7509    0.0000 C   0  0  0  0  0  0  0  0  0  0  0  0
    0.1942    3.2501    0.0000 C   0  0  0  0  0  0  0  0  0  0  0  0
   -0.6714    2.7495    0.0000 C   0  0  0  0  0  0  0  0  0  0  0  0
   -0.6706    1.7495    0.0000 C   0  0  0  0  0  0  0  0  0  0  0  0
    1.0630   -0.2491    0.0000 C   0  0  0  0  0  0  0  0  0  0  0  0
    1.0638   -1.2491    0.0000 C   0  0  0  0  0  0  0  0  0  0  0  0
    1.9302   -1.7485    0.0000 C   0  0  0  0  0  0  0  0  0  0  0  0
    2.7958   -1.2477    0.0000 C   0  0  0  0  0  0  0  0  0  0  0  0
    3.6622   -1.7471    0.0000 Cl  0  0  0  0  0  0  0  0  0  0  0  0
    2.7950   -0.2477    0.0000 C   0  0  0  0  0  0  0  0  0  0  0  0
    1.9286    0.2515    0.0000 C   0  0  0  0  0  0  0  0  0  0  0  0
   -3.6328   -0.3869    0.0000 H   0  0  0  0  0  0  0  0  0  0  0  0
   -4.6328   -0.3877    0.0000 H   0  0  0  0  0  0  0  0  0  0  0  0
   -4.9978   -1.7539    0.0000 H   0  0  0  0  0  0  0  0  0  0  0  0
  1  2  1  0
  2  3  1  0
  3  4  1  0
  4  5  1  0
  5  6  1  0
  6  7  1  0
  7  8  1  0
  9  6  1  1
  9 10  1  0
 10 11  2  0
 11 12  1  0
 12 13  2  0
 13 14  1  0
 14 15  2  0
  9 16  1  0
 16 17  2  0
 17 18  1  0
 18 19  2  0
 19 20  1  0
 19 21  1  0
 21 22  2  0
  1 23  1  0
  1 24  1  0
  1 25  1  0
  8  3  1  0
 15 10  1  0
 22 16  1  0
M  ISO  3  23   2  24   2  25   2
M  END
>  <HCV EC50 (uM)>  (25) 
0.036 +/- 0.015

>  <Huh 7.5.1 CC50 (uM)>  (25) 
71.3 +/- 11.4

>  <Selectivity Index>  (25) 
1981

>  <HepG2 CC50 (uM)>  (25) 


>  <Primary human hepatocyte CC50 (uM)>  (25) 


>  <Selectivity index>  (25) 


>  <H1HR %DMSO at 10nM>  (25) 


>  <HCVsc %DMSO>  (25) 


>  <HCVpp %DMSO GT1a>  (25) 


>  <HCVpp %DMSO GT1b>  (25) 


>  <MLVpp %DMSO>  (25) 


>  <VSV-Gpp %DMSO>  (25) 


>  <Replicon %DMSO GT2a>  (25) 


>  <Human microsomal t1/2 (min)>  (25) 


>  <Mouse microsomal t1/2 (min)>  (25) 


>  <Rat microsomal t1/2 (min)>  (25) 


>  <Permeability (10-6 cm/s)>  (25) 


>  <Solubility (?g/mL)>  (25) 


$$$$
(S)-16
     RDKit          2D

 25 28  0  0  0  0  0  0  0  0999 V2000
    0.8313    4.3266    0.0000 Cl  0  0  0  0  0  0  0  0  0  0  0  0
    0.8335    3.3266    0.0000 C   0  0  0  0  0  0  0  0  0  0  0  0
   -0.0317    2.8250    0.0000 C   0  0  0  0  0  0  0  0  0  0  0  0
   -0.0295    1.8250    0.0000 C   0  0  0  0  0  0  0  0  0  0  0  0
    0.8375    1.3266    0.0000 C   0  0  0  0  0  0  0  0  0  0  0  0
    1.7025    1.8284    0.0000 C   0  0  0  0  0  0  0  0  0  0  0  0
    1.7005    2.8284    0.0000 C   0  0  0  0  0  0  0  0  0  0  0  0
    0.8395    0.3268    0.0000 C   0  0  0  0  0  0  0  0  0  0  0  0
   -0.0255   -0.1750    0.0000 N   0  0  0  0  0  0  0  0  0  0  0  0
   -0.0235   -1.1750    0.0000 C   0  0  0  0  0  0  0  0  0  0  0  0
   -0.8885   -1.6766    0.0000 C   0  0  0  0  0  0  0  0  0  0  0  0
   -1.7555   -1.1784    0.0000 N   0  0  0  0  0  0  0  0  0  0  0  0
   -1.7575   -0.1784    0.0000 C   0  0  0  0  0  0  0  0  0  0  0  0
   -0.8925    0.3232    0.0000 C   0  0  0  0  0  0  0  0  0  0  0  0
   -2.6205   -1.6802    0.0000 C   0  0  0  0  0  0  0  0  0  0  0  0
   -2.7231   -2.6750    0.0000 C   0  0  0  0  0  0  0  0  0  0  0  0
   -3.7007   -2.8846    0.0000 C   0  0  0  0  0  0  0  0  0  0  0  0
   -4.2025   -2.0196    0.0000 C   0  0  0  0  0  0  0  0  0  0  0  0
   -3.5351   -1.2752    0.0000 C   0  0  0  0  0  0  0  0  0  0  0  0
    1.7065   -0.1716    0.0000 C   0  0  0  0  0  0  0  0  0  0  0  0
    2.5715    0.3302    0.0000 C   0  0  0  0  0  0  0  0  0  0  0  0
    3.4385   -0.1680    0.0000 C   0  0  0  0  0  0  0  0  0  0  0  0
    3.4405   -1.1680    0.0000 C   0  0  0  0  0  0  0  0  0  0  0  0
    2.5755   -1.6698    0.0000 C   0  0  0  0  0  0  0  0  0  0  0  0
    1.7085   -1.1716    0.0000 C   0  0  0  0  0  0  0  0  0  0  0  0
  1  2  1  0
  2  3  2  0
  3  4  1  0
  4  5  2  0
  5  6  1  0
  6  7  2  0
  5  8  1  0
  8  9  1  6
  9 10  1  0
 10 11  1  0
 11 12  1  0
 12 13  1  0
 13 14  1  0
 12 15  1  0
 15 16  1  0
 16 17  1  0
 17 18  1  0
 18 19  1  0
  8 20  1  0
 20 21  2  0
 21 22  1  0
 22 23  2  0
 23 24  1  0
 24 25  2  0
  7  2  1  0
 14  9  1  0
 19 15  1  0
 25 20  1  0
M  END
>  <HCV EC50 (uM)>  (26) 
0.019 +/- 0.006

>  <Huh 7.5.1 CC50 (uM)>  (26) 
30.4 +/- 2.8

>  <Selectivity Index>  (26) 
1600

>  <HepG2 CC50 (uM)>  (26) 


>  <Primary human hepatocyte CC50 (uM)>  (26) 


>  <Selectivity index>  (26) 


>  <H1HR %DMSO at 10nM>  (26) 


>  <HCVsc %DMSO>  (26) 


>  <HCVpp %DMSO GT1a>  (26) 


>  <HCVpp %DMSO GT1b>  (26) 


>  <MLVpp %DMSO>  (26) 


>  <VSV-Gpp %DMSO>  (26) 


>  <Replicon %DMSO GT2a>  (26) 


>  <Human microsomal t1/2 (min)>  (26) 


>  <Mouse microsomal t1/2 (min)>  (26) 


>  <Rat microsomal t1/2 (min)>  (26) 


>  <Permeability (10-6 cm/s)>  (26) 


>  <Solubility (?g/mL)>  (26) 


$$$$
(S)-17
     RDKit          2D

 26 29  0  0  0  0  0  0  0  0999 V2000
    0.9904    4.4250    0.0000 Cl  0  0  0  0  0  0  0  0  0  0  0  0
    0.9924    3.4250    0.0000 C   0  0  0  0  0  0  0  0  0  0  0  0
    0.1274    2.9232    0.0000 C   0  0  0  0  0  0  0  0  0  0  0  0
    0.1294    1.9232    0.0000 C   0  0  0  0  0  0  0  0  0  0  0  0
    0.9964    1.4250    0.0000 C   0  0  0  0  0  0  0  0  0  0  0  0
    1.8614    1.9268    0.0000 C   0  0  0  0  0  0  0  0  0  0  0  0
    1.8594    2.9268    0.0000 C   0  0  0  0  0  0  0  0  0  0  0  0
    0.9984    0.4250    0.0000 C   0  0  0  0  0  0  0  0  0  0  0  0
    0.1334   -0.0766    0.0000 N   0  0  0  0  0  0  0  0  0  0  0  0
    0.1354   -1.0766    0.0000 C   0  0  0  0  0  0  0  0  0  0  0  0
   -0.7296   -1.5784    0.0000 C   0  0  0  0  0  0  0  0  0  0  0  0
   -1.5966   -1.0800    0.0000 N   0  0  0  0  0  0  0  0  0  0  0  0
   -1.5986   -0.0802    0.0000 C   0  0  0  0  0  0  0  0  0  0  0  0
   -0.7336    0.4216    0.0000 C   0  0  0  0  0  0  0  0  0  0  0  0
   -2.4616   -1.5818    0.0000 C   0  0  0  0  0  0  0  0  0  0  0  0
   -2.4596   -2.5818    0.0000 C   0  0  0  0  0  0  0  0  0  0  0  0
   -3.3246   -3.0834    0.0000 C   0  0  0  0  0  0  0  0  0  0  0  0
   -4.1916   -2.5852    0.0000 C   0  0  0  0  0  0  0  0  0  0  0  0
   -4.1936   -1.5852    0.0000 C   0  0  0  0  0  0  0  0  0  0  0  0
   -3.3286   -1.0836    0.0000 C   0  0  0  0  0  0  0  0  0  0  0  0
    1.8654   -0.0732    0.0000 C   0  0  0  0  0  0  0  0  0  0  0  0
    2.7304    0.4286    0.0000 C   0  0  0  0  0  0  0  0  0  0  0  0
    3.5976   -0.0698    0.0000 C   0  0  0  0  0  0  0  0  0  0  0  0
    3.5996   -1.0698    0.0000 C   0  0  0  0  0  0  0  0  0  0  0  0
    2.7346   -1.5714    0.0000 C   0  0  0  0  0  0  0  0  0  0  0  0
    1.8674   -1.0732    0.0000 C   0  0  0  0  0  0  0  0  0  0  0  0
  1  2  1  0
  2  3  2  0
  3  4  1  0
  4  5  2  0
  5  6  1  0
  6  7  2  0
  5  8  1  0
  8  9  1  6
  9 10  1  0
 10 11  1  0
 11 12  1  0
 12 13  1  0
 13 14  1  0
 12 15  1  0
 15 16  1  0
 16 17  1  0
 17 18  1  0
 18 19  1  0
 19 20  1  0
  8 21  1  0
 21 22  2  0
 22 23  1  0
 23 24  2  0
 24 25  1  0
 25 26  2  0
  7  2  1  0
 14  9  1  0
 20 15  1  0
 26 21  1  0
M  END
>  <HCV EC50 (uM)>  (27) 
0.177 +/- 0.037

>  <Huh 7.5.1 CC50 (uM)>  (27) 
12.3 +/- 0.3

>  <Selectivity Index>  (27) 
69

>  <HepG2 CC50 (uM)>  (27) 


>  <Primary human hepatocyte CC50 (uM)>  (27) 


>  <Selectivity index>  (27) 


>  <H1HR %DMSO at 10nM>  (27) 


>  <HCVsc %DMSO>  (27) 


>  <HCVpp %DMSO GT1a>  (27) 


>  <HCVpp %DMSO GT1b>  (27) 


>  <MLVpp %DMSO>  (27) 


>  <VSV-Gpp %DMSO>  (27) 


>  <Replicon %DMSO GT2a>  (27) 


>  <Human microsomal t1/2 (min)>  (27) 


>  <Mouse microsomal t1/2 (min)>  (27) 


>  <Rat microsomal t1/2 (min)>  (27) 


>  <Permeability (10-6 cm/s)>  (27) 


>  <Solubility (?g/mL)>  (27) 


$$$$
(S)-18
     RDKit          2D

 23 25  0  0  0  0  0  0  0  0999 V2000
   -3.8378   -1.3989    0.0000 C   0  0  0  0  0  0  0  0  0  0  0  0
   -2.9708   -1.8973    0.0000 C   0  0  0  0  0  0  0  0  0  0  0  0
   -2.9688   -2.8971    0.0000 C   0  0  0  0  0  0  0  0  0  0  0  0
   -2.1058   -1.3955    0.0000 N   0  0  0  0  0  0  0  0  0  0  0  0
   -1.2388   -1.8937    0.0000 C   0  0  0  0  0  0  0  0  0  0  0  0
   -0.3738   -1.3921    0.0000 C   0  0  0  0  0  0  0  0  0  0  0  0
   -0.3758   -0.3921    0.0000 N   0  0  0  0  0  0  0  0  0  0  0  0
   -1.2428    0.1061    0.0000 C   0  0  0  0  0  0  0  0  0  0  0  0
   -2.1078   -0.3955    0.0000 C   0  0  0  0  0  0  0  0  0  0  0  0
    0.4892    0.1097    0.0000 C   0  0  0  0  0  0  0  0  0  0  0  0
    1.3562   -0.3887    0.0000 C   0  0  0  0  0  0  0  0  0  0  0  0
    2.2212    0.1131    0.0000 C   0  0  0  0  0  0  0  0  0  0  0  0
    3.0882   -0.3851    0.0000 C   0  0  0  0  0  0  0  0  0  0  0  0
    3.0904   -1.3851    0.0000 C   0  0  0  0  0  0  0  0  0  0  0  0
    2.2254   -1.8869    0.0000 C   0  0  0  0  0  0  0  0  0  0  0  0
    1.3582   -1.3885    0.0000 C   0  0  0  0  0  0  0  0  0  0  0  0
    0.4872    1.1097    0.0000 C   0  0  0  0  0  0  0  0  0  0  0  0
   -0.3798    1.6079    0.0000 C   0  0  0  0  0  0  0  0  0  0  0  0
   -0.3818    2.6079    0.0000 C   0  0  0  0  0  0  0  0  0  0  0  0
    0.4832    3.1095    0.0000 C   0  0  0  0  0  0  0  0  0  0  0  0
    0.4812    4.1095    0.0000 Cl  0  0  0  0  0  0  0  0  0  0  0  0
    1.3502    2.6113    0.0000 C   0  0  0  0  0  0  0  0  0  0  0  0
    1.3522    1.6113    0.0000 C   0  0  0  0  0  0  0  0  0  0  0  0
  1  2  1  0
  2  3  1  0
  2  4  1  0
  4  5  1  0
  5  6  1  0
  6  7  1  0
  7  8  1  0
  8  9  1  0
 10  7  1  6
 10 11  1  0
 11 12  2  0
 12 13  1  0
 13 14  2  0
 14 15  1  0
 15 16  2  0
 10 17  1  0
 17 18  2  0
 18 19  1  0
 19 20  2  0
 20 21  1  0
 20 22  1  0
 22 23  2  0
  9  4  1  0
 16 11  1  0
 23 17  1  0
M  END
>  <HCV EC50 (uM)>  (28) 
0.013 +/- 0.004

>  <Huh 7.5.1 CC50 (uM)>  (28) 
32.4 +/- 3.8

>  <Selectivity Index>  (28) 
2492

>  <HepG2 CC50 (uM)>  (28) 


>  <Primary human hepatocyte CC50 (uM)>  (28) 


>  <Selectivity index>  (28) 


>  <H1HR %DMSO at 10nM>  (28) 


>  <HCVsc %DMSO>  (28) 


>  <HCVpp %DMSO GT1a>  (28) 


>  <HCVpp %DMSO GT1b>  (28) 


>  <MLVpp %DMSO>  (28) 


>  <VSV-Gpp %DMSO>  (28) 


>  <Replicon %DMSO GT2a>  (28) 


>  <Human microsomal t1/2 (min)>  (28) 


>  <Mouse microsomal t1/2 (min)>  (28) 


>  <Rat microsomal t1/2 (min)>  (28) 


>  <Permeability (10-6 cm/s)>  (28) 


>  <Solubility (?g/mL)>  (28) 


$$$$
(S)-19
     RDKit          2D

 23 25  0  0  0  0  0  0  0  0999 V2000
   -3.9902    1.1335    0.0000 C   0  0  0  0  0  0  0  0  0  0  0  0
   -3.1238    1.6329    0.0000 C   0  0  0  0  0  0  0  0  0  0  0  0
   -3.1230    2.6329    0.0000 O   0  0  0  0  0  0  0  0  0  0  0  0
   -2.2582    1.1323    0.0000 N   0  0  0  0  0  0  0  0  0  0  0  0
   -2.2590    0.1323    0.0000 C   0  0  0  0  0  0  0  0  0  0  0  0
   -1.3934   -0.3685    0.0000 C   0  0  0  0  0  0  0  0  0  0  0  0
   -0.5270    0.1309    0.0000 N   0  0  0  0  0  0  0  0  0  0  0  0
   -0.5262    1.1309    0.0000 C   0  0  0  0  0  0  0  0  0  0  0  0
   -1.3918    1.6315    0.0000 C   0  0  0  0  0  0  0  0  0  0  0  0
    0.3386   -0.3699    0.0000 C   0  0  0  0  0  0  0  0  0  0  0  0
    0.3378   -1.3699    0.0000 C   0  0  0  0  0  0  0  0  0  0  0  0
    1.2034   -1.8705    0.0000 C   0  0  0  0  0  0  0  0  0  0  0  0
    1.2026   -2.8705    0.0000 C   0  0  0  0  0  0  0  0  0  0  0  0
    0.3362   -3.3699    0.0000 C   0  0  0  0  0  0  0  0  0  0  0  0
   -0.5294   -2.8691    0.0000 C   0  0  0  0  0  0  0  0  0  0  0  0
   -0.5286   -1.8691    0.0000 C   0  0  0  0  0  0  0  0  0  0  0  0
    1.2050    0.1295    0.0000 C   0  0  0  0  0  0  0  0  0  0  0  0
    1.2058    1.1295    0.0000 C   0  0  0  0  0  0  0  0  0  0  0  0
    2.0722    1.6287    0.0000 C   0  0  0  0  0  0  0  0  0  0  0  0
    2.9378    1.1281    0.0000 C   0  0  0  0  0  0  0  0  0  0  0  0
    3.8042    1.6273    0.0000 Cl  0  0  0  0  0  0  0  0  0  0  0  0
    2.9370    0.1281    0.0000 C   0  0  0  0  0  0  0  0  0  0  0  0
    2.0706   -0.3713    0.0000 C   0  0  0  0  0  0  0  0  0  0  0  0
  1  2  1  0
  2  3  2  0
  2  4  1  0
  4  5  1  0
  5  6  1  0
  6  7  1  0
  7  8  1  0
  8  9  1  0
 10  7  1  6
 10 11  1  0
 11 12  2  0
 12 13  1  0
 13 14  2  0
 14 15  1  0
 15 16  2  0
 10 17  1  0
 17 18  2  0
 18 19  1  0
 19 20  2  0
 20 21  1  0
 20 22  1  0
 22 23  2  0
  9  4  1  0
 16 11  1  0
 23 17  1  0
M  END
>  <HCV EC50 (uM)>  (29) 
22.0 +/- 3.2

>  <Huh 7.5.1 CC50 (uM)>  (29) 
91.3 +/- 1.0

>  <Selectivity Index>  (29) 
4

>  <HepG2 CC50 (uM)>  (29) 


>  <Primary human hepatocyte CC50 (uM)>  (29) 


>  <Selectivity index>  (29) 


>  <H1HR %DMSO at 10nM>  (29) 


>  <HCVsc %DMSO>  (29) 


>  <HCVpp %DMSO GT1a>  (29) 


>  <HCVpp %DMSO GT1b>  (29) 


>  <MLVpp %DMSO>  (29) 


>  <VSV-Gpp %DMSO>  (29) 


>  <Replicon %DMSO GT2a>  (29) 


>  <Human microsomal t1/2 (min)>  (29) 


>  <Mouse microsomal t1/2 (min)>  (29) 


>  <Rat microsomal t1/2 (min)>  (29) 


>  <Permeability (10-6 cm/s)>  (29) 


>  <Solubility (?g/mL)>  (29) 


$$$$
(R)-20
     RDKit          2D

 24 26  0  0  0  0  0  0  0  0999 V2000
    3.4626   -1.8122    0.0000 C   0  0  0  0  0  0  0  0  0  0  0  0
    2.5970   -1.3116    0.0000 N   0  0  0  0  0  0  0  0  0  0  0  0
    2.5978   -0.3116    0.0000 C   0  0  0  0  0  0  0  0  0  0  0  0
    1.7322    0.1892    0.0000 C   0  0  0  0  0  0  0  0  0  0  0  0
    0.8658   -0.3102    0.0000 N   0  0  0  0  0  0  0  0  0  0  0  0
    0.8650   -1.3102    0.0000 C   0  0  0  0  0  0  0  0  0  0  0  0
    1.7306   -1.8108    0.0000 C   0  0  0  0  0  0  0  0  0  0  0  0
    0.0002    0.1904    0.0000 C   0  0  0  0  0  0  0  0  0  0  0  0
    0.0010    1.1904    0.0000 C   0  0  0  0  0  0  0  0  0  0  0  0
   -0.8646    1.6912    0.0000 C   0  0  0  0  0  0  0  0  0  0  0  0
   -0.8638    2.6912    0.0000 C   0  0  0  0  0  0  0  0  0  0  0  0
    0.0026    3.1904    0.0000 C   0  0  0  0  0  0  0  0  0  0  0  0
    0.8682    2.6898    0.0000 C   0  0  0  0  0  0  0  0  0  0  0  0
    0.8674    1.6898    0.0000 C   0  0  0  0  0  0  0  0  0  0  0  0
   -0.8662   -0.3088    0.0000 C   0  0  0  0  0  0  0  0  0  0  0  0
   -0.8670   -1.3088    0.0000 C   0  0  0  0  0  0  0  0  0  0  0  0
   -1.7334   -1.8082    0.0000 C   0  0  0  0  0  0  0  0  0  0  0  0
   -2.5990   -1.3074    0.0000 C   0  0  0  0  0  0  0  0  0  0  0  0
   -3.4654   -1.8068    0.0000 Cl  0  0  0  0  0  0  0  0  0  0  0  0
   -2.5982   -0.3074    0.0000 C   0  0  0  0  0  0  0  0  0  0  0  0
   -1.7318    0.1918    0.0000 C   0  0  0  0  0  0  0  0  0  0  0  0
    2.9620   -2.6778    0.0000 H   0  0  0  0  0  0  0  0  0  0  0  0
    3.9620   -2.6786    0.0000 H   0  0  0  0  0  0  0  0  0  0  0  0
    4.3290   -1.3130    0.0000 H   0  0  0  0  0  0  0  0  0  0  0  0
  1  2  1  0
  2  3  1  0
  3  4  1  0
  4  5  1  0
  5  6  1  0
  6  7  1  0
  8  5  1  1
  8  9  1  0
  9 10  2  0
 10 11  1  0
 11 12  2  0
 12 13  1  0
 13 14  2  0
  8 15  1  0
 15 16  2  0
 16 17  1  0
 17 18  2  0
 18 19  1  0
 18 20  1  0
 20 21  2  0
  1 22  1  0
  1 23  1  0
  1 24  1  0
  7  2  1  0
 14  9  1  0
 21 15  1  0
M  ISO  3  22   2  23   2  24   2
M  END
>  <HCV EC50 (uM)>  (30) 
0.040 +/- 0.017

>  <Huh 7.5.1 CC50 (uM)>  (30) 
46.7 +/- 0.4

>  <Selectivity Index>  (30) 
1168

>  <HepG2 CC50 (uM)>  (30) 


>  <Primary human hepatocyte CC50 (uM)>  (30) 


>  <Selectivity index>  (30) 


>  <H1HR %DMSO at 10nM>  (30) 


>  <HCVsc %DMSO>  (30) 


>  <HCVpp %DMSO GT1a>  (30) 


>  <HCVpp %DMSO GT1b>  (30) 


>  <MLVpp %DMSO>  (30) 


>  <VSV-Gpp %DMSO>  (30) 


>  <Replicon %DMSO GT2a>  (30) 


>  <Human microsomal t1/2 (min)>  (30) 


>  <Mouse microsomal t1/2 (min)>  (30) 


>  <Rat microsomal t1/2 (min)>  (30) 


>  <Permeability (10-6 cm/s)>  (30) 


>  <Solubility (?g/mL)>  (30) 


$$$$
(S)-20
     RDKit          2D

 24 26  0  0  0  0  0  0  0  0999 V2000
    3.4626   -1.8122    0.0000 C   0  0  0  0  0  0  0  0  0  0  0  0
    2.5970   -1.3116    0.0000 N   0  0  0  0  0  0  0  0  0  0  0  0
    2.5978   -0.3116    0.0000 C   0  0  0  0  0  0  0  0  0  0  0  0
    1.7322    0.1892    0.0000 C   0  0  0  0  0  0  0  0  0  0  0  0
    0.8658   -0.3102    0.0000 N   0  0  0  0  0  0  0  0  0  0  0  0
    0.8650   -1.3102    0.0000 C   0  0  0  0  0  0  0  0  0  0  0  0
    1.7306   -1.8108    0.0000 C   0  0  0  0  0  0  0  0  0  0  0  0
    0.0002    0.1904    0.0000 C   0  0  0  0  0  0  0  0  0  0  0  0
    0.0010    1.1904    0.0000 C   0  0  0  0  0  0  0  0  0  0  0  0
   -0.8646    1.6912    0.0000 C   0  0  0  0  0  0  0  0  0  0  0  0
   -0.8638    2.6912    0.0000 C   0  0  0  0  0  0  0  0  0  0  0  0
    0.0026    3.1904    0.0000 C   0  0  0  0  0  0  0  0  0  0  0  0
    0.8682    2.6898    0.0000 C   0  0  0  0  0  0  0  0  0  0  0  0
    0.8674    1.6898    0.0000 C   0  0  0  0  0  0  0  0  0  0  0  0
   -0.8662   -0.3088    0.0000 C   0  0  0  0  0  0  0  0  0  0  0  0
   -0.8670   -1.3088    0.0000 C   0  0  0  0  0  0  0  0  0  0  0  0
   -1.7334   -1.8082    0.0000 C   0  0  0  0  0  0  0  0  0  0  0  0
   -2.5990   -1.3074    0.0000 C   0  0  0  0  0  0  0  0  0  0  0  0
   -3.4654   -1.8068    0.0000 Cl  0  0  0  0  0  0  0  0  0  0  0  0
   -2.5982   -0.3074    0.0000 C   0  0  0  0  0  0  0  0  0  0  0  0
   -1.7318    0.1918    0.0000 C   0  0  0  0  0  0  0  0  0  0  0  0
    2.9620   -2.6778    0.0000 H   0  0  0  0  0  0  0  0  0  0  0  0
    3.9620   -2.6786    0.0000 H   0  0  0  0  0  0  0  0  0  0  0  0
    4.3290   -1.3130    0.0000 H   0  0  0  0  0  0  0  0  0  0  0  0
  1  2  1  0
  2  3  1  0
  3  4  1  0
  4  5  1  0
  5  6  1  0
  6  7  1  0
  8  5  1  6
  8  9  1  0
  9 10  2  0
 10 11  1  0
 11 12  2  0
 12 13  1  0
 13 14  2  0
  8 15  1  0
 15 16  2  0
 16 17  1  0
 17 18  2  0
 18 19  1  0
 18 20  1  0
 20 21  2  0
  1 22  1  0
  1 23  1  0
  1 24  1  0
  7  2  1  0
 14  9  1  0
 21 15  1  0
M  ISO  3  22   2  23   2  24   2
M  END
>  <HCV EC50 (uM)>  (31) 
0.063 +/- 0.025

>  <Huh 7.5.1 CC50 (uM)>  (31) 
77.9 +/- 3.1

>  <Selectivity Index>  (31) 
1237

>  <HepG2 CC50 (uM)>  (31) 


>  <Primary human hepatocyte CC50 (uM)>  (31) 


>  <Selectivity index>  (31) 


>  <H1HR %DMSO at 10nM>  (31) 


>  <HCVsc %DMSO>  (31) 


>  <HCVpp %DMSO GT1a>  (31) 


>  <HCVpp %DMSO GT1b>  (31) 


>  <MLVpp %DMSO>  (31) 


>  <VSV-Gpp %DMSO>  (31) 


>  <Replicon %DMSO GT2a>  (31) 


>  <Human microsomal t1/2 (min)>  (31) 


>  <Mouse microsomal t1/2 (min)>  (31) 


>  <Rat microsomal t1/2 (min)>  (31) 


>  <Permeability (10-6 cm/s)>  (31) 


>  <Solubility (?g/mL)>  (31) 


$$$$
(R)-21
     RDKit          2D

 25 27  0  0  0  0  0  0  0  0999 V2000
   -3.1022   -0.2858    0.0000 F   0  0  0  0  0  0  0  0  0  0  0  0
   -3.6016   -1.1522    0.0000 C   0  0  0  0  0  0  0  0  0  0  0  0
   -4.1022   -0.2866    0.0000 F   0  0  0  0  0  0  0  0  0  0  0  0
   -4.4672   -1.6528    0.0000 F   0  0  0  0  0  0  0  0  0  0  0  0
   -2.7352   -1.6514    0.0000 C   0  0  0  0  0  0  0  0  0  0  0  0
   -1.8696   -1.1508    0.0000 N   0  0  0  0  0  0  0  0  0  0  0  0
   -1.8704   -0.1508    0.0000 C   0  0  0  0  0  0  0  0  0  0  0  0
   -1.0048    0.3498    0.0000 C   0  0  0  0  0  0  0  0  0  0  0  0
   -0.1384   -0.1494    0.0000 N   0  0  0  0  0  0  0  0  0  0  0  0
   -0.1376   -1.1494    0.0000 C   0  0  0  0  0  0  0  0  0  0  0  0
   -1.0032   -1.6502    0.0000 C   0  0  0  0  0  0  0  0  0  0  0  0
    0.7272    0.3512    0.0000 C   0  0  0  0  0  0  0  0  0  0  0  0
    0.7264    1.3512    0.0000 C   0  0  0  0  0  0  0  0  0  0  0  0
    1.5920    1.8520    0.0000 C   0  0  0  0  0  0  0  0  0  0  0  0
    1.5912    2.8520    0.0000 C   0  0  0  0  0  0  0  0  0  0  0  0
    0.7248    3.3512    0.0000 C   0  0  0  0  0  0  0  0  0  0  0  0
   -0.1408    2.8506    0.0000 C   0  0  0  0  0  0  0  0  0  0  0  0
   -0.1400    1.8506    0.0000 C   0  0  0  0  0  0  0  0  0  0  0  0
    1.5936   -0.1480    0.0000 C   0  0  0  0  0  0  0  0  0  0  0  0
    1.5944   -1.1480    0.0000 C   0  0  0  0  0  0  0  0  0  0  0  0
    2.4608   -1.6474    0.0000 C   0  0  0  0  0  0  0  0  0  0  0  0
    3.3264   -1.1466    0.0000 C   0  0  0  0  0  0  0  0  0  0  0  0
    4.1928   -1.6460    0.0000 Cl  0  0  0  0  0  0  0  0  0  0  0  0
    3.3256   -0.1466    0.0000 C   0  0  0  0  0  0  0  0  0  0  0  0
    2.4592    0.3526    0.0000 C   0  0  0  0  0  0  0  0  0  0  0  0
  1  2  1  0
  2  3  1  0
  2  4  1  0
  2  5  1  0
  5  6  1  0
  6  7  1  0
  7  8  1  0
  8  9  1  0
  9 10  1  0
 10 11  1  0
 12  9  1  6
 12 13  1  0
 13 14  2  0
 14 15  1  0
 15 16  2  0
 16 17  1  0
 17 18  2  0
 12 19  1  0
 19 20  2  0
 20 21  1  0
 21 22  2  0
 22 23  1  0
 22 24  1  0
 24 25  2  0
 11  6  1  0
 18 13  1  0
 25 19  1  0
M  END
>  <HCV EC50 (uM)>  (32) 
> 31.6

>  <Huh 7.5.1 CC50 (uM)>  (32) 
> 100

>  <Selectivity Index>  (32) 
N/A

>  <HepG2 CC50 (uM)>  (32) 


>  <Primary human hepatocyte CC50 (uM)>  (32) 


>  <Selectivity index>  (32) 


>  <H1HR %DMSO at 10nM>  (32) 


>  <HCVsc %DMSO>  (32) 


>  <HCVpp %DMSO GT1a>  (32) 


>  <HCVpp %DMSO GT1b>  (32) 


>  <MLVpp %DMSO>  (32) 


>  <VSV-Gpp %DMSO>  (32) 


>  <Replicon %DMSO GT2a>  (32) 


>  <Human microsomal t1/2 (min)>  (32) 


>  <Mouse microsomal t1/2 (min)>  (32) 


>  <Rat microsomal t1/2 (min)>  (32) 


>  <Permeability (10-6 cm/s)>  (32) 


>  <Solubility (?g/mL)>  (32) 


$$$$
(S)-21
     RDKit          2D

 25 27  0  0  0  0  0  0  0  0999 V2000
   -3.1022   -0.2858    0.0000 F   0  0  0  0  0  0  0  0  0  0  0  0
   -3.6016   -1.1522    0.0000 C   0  0  0  0  0  0  0  0  0  0  0  0
   -4.1022   -0.2866    0.0000 F   0  0  0  0  0  0  0  0  0  0  0  0
   -4.4672   -1.6528    0.0000 F   0  0  0  0  0  0  0  0  0  0  0  0
   -2.7352   -1.6514    0.0000 C   0  0  0  0  0  0  0  0  0  0  0  0
   -1.8696   -1.1508    0.0000 N   0  0  0  0  0  0  0  0  0  0  0  0
   -1.8704   -0.1508    0.0000 C   0  0  0  0  0  0  0  0  0  0  0  0
   -1.0048    0.3498    0.0000 C   0  0  0  0  0  0  0  0  0  0  0  0
   -0.1384   -0.1494    0.0000 N   0  0  0  0  0  0  0  0  0  0  0  0
   -0.1376   -1.1494    0.0000 C   0  0  0  0  0  0  0  0  0  0  0  0
   -1.0032   -1.6502    0.0000 C   0  0  0  0  0  0  0  0  0  0  0  0
    0.7272    0.3512    0.0000 C   0  0  0  0  0  0  0  0  0  0  0  0
    0.7264    1.3512    0.0000 C   0  0  0  0  0  0  0  0  0  0  0  0
    1.5920    1.8520    0.0000 C   0  0  0  0  0  0  0  0  0  0  0  0
    1.5912    2.8520    0.0000 C   0  0  0  0  0  0  0  0  0  0  0  0
    0.7248    3.3512    0.0000 C   0  0  0  0  0  0  0  0  0  0  0  0
   -0.1408    2.8506    0.0000 C   0  0  0  0  0  0  0  0  0  0  0  0
   -0.1400    1.8506    0.0000 C   0  0  0  0  0  0  0  0  0  0  0  0
    1.5936   -0.1480    0.0000 C   0  0  0  0  0  0  0  0  0  0  0  0
    1.5944   -1.1480    0.0000 C   0  0  0  0  0  0  0  0  0  0  0  0
    2.4608   -1.6474    0.0000 C   0  0  0  0  0  0  0  0  0  0  0  0
    3.3264   -1.1466    0.0000 C   0  0  0  0  0  0  0  0  0  0  0  0
    4.1928   -1.6460    0.0000 Cl  0  0  0  0  0  0  0  0  0  0  0  0
    3.3256   -0.1466    0.0000 C   0  0  0  0  0  0  0  0  0  0  0  0
    2.4592    0.3526    0.0000 C   0  0  0  0  0  0  0  0  0  0  0  0
  1  2  1  0
  2  3  1  0
  2  4  1  0
  2  5  1  0
  5  6  1  0
  6  7  1  0
  7  8  1  0
  8  9  1  0
  9 10  1  0
 10 11  1  0
 12  9  1  1
 12 13  1  0
 13 14  2  0
 14 15  1  0
 15 16  2  0
 16 17  1  0
 17 18  2  0
 12 19  1  0
 19 20  2  0
 20 21  1  0
 21 22  2  0
 22 23  1  0
 22 24  1  0
 24 25  2  0
 11  6  1  0
 18 13  1  0
 25 19  1  0
M  END
>  <HCV EC50 (uM)>  (33) 
> 31.6

>  <Huh 7.5.1 CC50 (uM)>  (33) 
> 100

>  <Selectivity Index>  (33) 
N/A

>  <HepG2 CC50 (uM)>  (33) 


>  <Primary human hepatocyte CC50 (uM)>  (33) 


>  <Selectivity index>  (33) 


>  <H1HR %DMSO at 10nM>  (33) 


>  <HCVsc %DMSO>  (33) 


>  <HCVpp %DMSO GT1a>  (33) 


>  <HCVpp %DMSO GT1b>  (33) 


>  <MLVpp %DMSO>  (33) 


>  <VSV-Gpp %DMSO>  (33) 


>  <Replicon %DMSO GT2a>  (33) 


>  <Human microsomal t1/2 (min)>  (33) 


>  <Mouse microsomal t1/2 (min)>  (33) 


>  <Rat microsomal t1/2 (min)>  (33) 


>  <Permeability (10-6 cm/s)>  (33) 


>  <Solubility (?g/mL)>  (33) 


$$$$
Rac-22
     RDKit          2D

 36 40  0  0  0  0  0  0  0  0999 V2000
    6.8640   -1.4414    0.0000 Cl  0  0  0  0  0  0  0  0  0  0  0  0
    5.9964   -0.9438    0.0000 C   0  0  0  0  0  0  0  0  0  0  0  0
    5.1320   -1.4464    0.0000 C   0  0  0  0  0  0  0  0  0  0  0  0
    4.2644   -0.9488    0.0000 C   0  0  0  0  0  0  0  0  0  0  0  0
    5.9938    0.0562    0.0000 C   0  0  0  0  0  0  0  0  0  0  0  0
    5.1262    0.5538    0.0000 C   0  0  0  0  0  0  0  0  0  0  0  0
    4.2618    0.0512    0.0000 C   0  0  0  0  0  0  0  0  0  0  0  0
    3.3942    0.5488    0.0000 C   0  0  0  0  0  0  0  0  0  0  0  0
    3.3914    1.5488    0.0000 C   0  0  0  0  0  0  0  0  0  0  0  0
    2.5240    2.0464    0.0000 C   0  0  0  0  0  0  0  0  0  0  0  0
    2.5212    3.0464    0.0000 C   0  0  0  0  0  0  0  0  0  0  0  0
    3.3858    3.5488    0.0000 C   0  0  0  0  0  0  0  0  0  0  0  0
    4.2534    3.0512    0.0000 C   0  0  0  0  0  0  0  0  0  0  0  0
    4.2560    2.0512    0.0000 C   0  0  0  0  0  0  0  0  0  0  0  0
    2.5298    0.0464    0.0000 N   0  0  0  0  0  0  0  0  0  0  0  0
    1.6622    0.5440    0.0000 C   0  0  0  0  0  0  0  0  0  0  0  0
    0.7978    0.0416    0.0000 C   0  0  0  0  0  0  0  0  0  0  0  0
    0.8004   -0.9584    0.0000 N   0  0  0  0  0  0  0  0  0  0  0  0
   -0.0642   -1.4608    0.0000 C   0  0  0  0  0  0  0  0  0  0  0  0
   -0.9316   -0.9632    0.0000 C   0  0  0  0  0  0  0  0  0  0  0  0
   -1.7962   -1.4656    0.0000 O   0  0  0  0  0  0  0  0  0  0  0  0
   -2.6636   -0.9680    0.0000 C   0  0  0  0  0  0  0  0  0  0  0  0
   -3.5282   -1.4704    0.0000 C   0  0  0  0  0  0  0  0  0  0  0  0
   -4.3958   -0.9728    0.0000 N   0  0  0  0  0  0  0  0  0  0  0  0
   -4.5028    0.0214    0.0000 C   0  0  0  0  0  0  0  0  0  0  0  0
   -5.4816    0.2266    0.0000 C   0  0  0  0  0  0  0  0  0  0  0  0
   -5.9840    1.0910    0.0000 C   0  0  0  0  0  0  0  0  0  0  0  0
   -6.9840    1.0884    0.0000 C   0  0  0  0  0  0  0  0  0  0  0  0
   -7.4816    0.2208    0.0000 C   0  0  0  0  0  0  0  0  0  0  0  0
   -6.9792   -0.6436    0.0000 C   0  0  0  0  0  0  0  0  0  0  0  0
   -5.9792   -0.6408    0.0000 C   0  0  0  0  0  0  0  0  0  0  0  0
   -5.3080   -1.3824    0.0000 C   0  0  0  0  0  0  0  0  0  0  0  0
   -5.5132   -2.3608    0.0000 O   0  0  0  0  0  0  0  0  0  0  0  0
   -3.7618    0.6926    0.0000 O   0  0  0  0  0  0  0  0  0  0  0  0
    1.6678   -1.4560    0.0000 C   0  0  0  0  0  0  0  0  0  0  0  0
    2.5324   -0.9534    0.0000 C   0  0  0  0  0  0  0  0  0  0  0  0
  1  2  1  0
  2  3  2  0
  3  4  1  0
  2  5  1  0
  5  6  2  0
  6  7  1  0
  7  8  1  0
  8  9  1  0
  9 10  2  0
 10 11  1  0
 11 12  2  0
 12 13  1  0
 13 14  2  0
  8 15  1  0
 15 16  1  0
 16 17  1  0
 17 18  1  0
 18 19  1  0
 19 20  1  0
 20 21  1  0
 21 22  1  0
 22 23  1  0
 23 24  1  0
 24 25  1  0
 25 26  1  0
 26 27  1  0
 27 28  2  0
 28 29  1  0
 29 30  2  0
 26 31  2  0
 31 32  1  0
 32 33  2  0
 25 34  2  0
 18 35  1  0
 35 36  1  0
  7  4  2  0
 14  9  1  0
 36 15  1  0
 32 24  1  0
 31 30  1  0
M  END
>  <HCV EC50 (uM)>  (34) 
1.54 +/- 0.57

>  <Huh 7.5.1 CC50 (uM)>  (34) 
> 100

>  <Selectivity Index>  (34) 
> 65

>  <HepG2 CC50 (uM)>  (34) 


>  <Primary human hepatocyte CC50 (uM)>  (34) 


>  <Selectivity index>  (34) 


>  <H1HR %DMSO at 10nM>  (34) 


>  <HCVsc %DMSO>  (34) 


>  <HCVpp %DMSO GT1a>  (34) 


>  <HCVpp %DMSO GT1b>  (34) 


>  <MLVpp %DMSO>  (34) 


>  <VSV-Gpp %DMSO>  (34) 


>  <Replicon %DMSO GT2a>  (34) 


>  <Human microsomal t1/2 (min)>  (34) 


>  <Mouse microsomal t1/2 (min)>  (34) 


>  <Rat microsomal t1/2 (min)>  (34) 


>  <Permeability (10-6 cm/s)>  (34) 


>  <Solubility (?g/mL)>  (34) 


$$$$
Rac-23
     RDKit          2D

 26 28  0  0  0  0  0  0  0  0999 V2000
   -6.6274   -1.0244    0.0000 N   0  0  0  0  0  0  0  0  0  0  0  0
   -5.7610   -1.5238    0.0000 C   0  0  0  0  0  0  0  0  0  0  0  0
   -4.8954   -1.0230    0.0000 C   0  0  0  0  0  0  0  0  0  0  0  0
   -4.0290   -1.5224    0.0000 O   0  0  0  0  0  0  0  0  0  0  0  0
   -3.1634   -1.0218    0.0000 C   0  0  0  0  0  0  0  0  0  0  0  0
   -2.2970   -1.5210    0.0000 C   0  0  0  0  0  0  0  0  0  0  0  0
   -1.4316   -1.0204    0.0000 N   0  0  0  0  0  0  0  0  0  0  0  0
   -1.4324   -0.0202    0.0000 C   0  0  0  0  0  0  0  0  0  0  0  0
   -0.5666    0.4802    0.0000 C   0  0  0  0  0  0  0  0  0  0  0  0
    0.2998   -0.0190    0.0000 N   0  0  0  0  0  0  0  0  0  0  0  0
    0.3006   -1.0190    0.0000 C   0  0  0  0  0  0  0  0  0  0  0  0
   -0.5650   -1.5196    0.0000 C   0  0  0  0  0  0  0  0  0  0  0  0
    1.1654    0.4818    0.0000 C   0  0  0  0  0  0  0  0  0  0  0  0
    1.1646    1.4818    0.0000 C   0  0  0  0  0  0  0  0  0  0  0  0
    2.0302    1.9824    0.0000 C   0  0  0  0  0  0  0  0  0  0  0  0
    2.0294    2.9824    0.0000 C   0  0  0  0  0  0  0  0  0  0  0  0
    1.1630    3.4816    0.0000 C   0  0  0  0  0  0  0  0  0  0  0  0
    0.2974    2.9810    0.0000 C   0  0  0  0  0  0  0  0  0  0  0  0
    0.2982    1.9810    0.0000 C   0  0  0  0  0  0  0  0  0  0  0  0
    2.0316   -0.0176    0.0000 C   0  0  0  0  0  0  0  0  0  0  0  0
    2.0324   -1.0176    0.0000 C   0  0  0  0  0  0  0  0  0  0  0  0
    2.8990   -1.5168    0.0000 C   0  0  0  0  0  0  0  0  0  0  0  0
    3.7646   -1.0162    0.0000 C   0  0  0  0  0  0  0  0  0  0  0  0
    4.6310   -1.5156    0.0000 Cl  0  0  0  0  0  0  0  0  0  0  0  0
    3.7638   -0.0162    0.0000 C   0  0  0  0  0  0  0  0  0  0  0  0
    2.8974    0.4830    0.0000 C   0  0  0  0  0  0  0  0  0  0  0  0
  1  2  1  0
  2  3  1  0
  3  4  1  0
  4  5  1  0
  5  6  1  0
  6  7  1  0
  7  8  1  0
  8  9  1  0
  9 10  1  0
 10 11  1  0
 11 12  1  0
 10 13  1  0
 13 14  1  0
 14 15  2  0
 15 16  1  0
 16 17  2  0
 17 18  1  0
 18 19  2  0
 13 20  1  0
 20 21  2  0
 21 22  1  0
 22 23  2  0
 23 24  1  0
 23 25  1  0
 25 26  2  0
 12  7  1  0
 19 14  1  0
 26 20  1  0
M  END
>  <HCV EC50 (uM)>  (35) 
0.0072 +/- 0.0018

>  <Huh 7.5.1 CC50 (uM)>  (35) 
8.18 +/- 0.40

>  <Selectivity Index>  (35) 
1152

>  <HepG2 CC50 (uM)>  (35) 
6.17

>  <Primary human hepatocyte CC50 (uM)>  (35) 
8.98

>  <Selectivity index>  (35) 
1136

>  <H1HR %DMSO at 10nM>  (35) 
21.5

>  <HCVsc %DMSO>  (35) 
6.9

>  <HCVpp %DMSO GT1a>  (35) 
19.4

>  <HCVpp %DMSO GT1b>  (35) 
37.2

>  <MLVpp %DMSO>  (35) 
107

>  <VSV-Gpp %DMSO>  (35) 
93.1

>  <Replicon %DMSO GT2a>  (35) 
149

>  <Human microsomal t1/2 (min)>  (35) 
26.3

>  <Mouse microsomal t1/2 (min)>  (35) 
25

>  <Rat microsomal t1/2 (min)>  (35) 
12.2

>  <Permeability (10-6 cm/s)>  (35) 
NT

>  <Solubility (?g/mL)>  (35) 
44.3

$$$$
Rac-24
     RDKit          2D

 42 44  0  0  0  0  0  0  0  0999 V2000
  -11.4175    0.2624    0.0000 C   0  0  0  0  0  0  0  0  0  0  0  0
  -11.9183   -0.6032    0.0000 C   0  0  0  0  0  0  0  0  0  0  0  0
  -12.4175    0.2632    0.0000 C   0  0  0  0  0  0  0  0  0  0  0  0
  -12.7847   -1.1024    0.0000 C   0  0  0  0  0  0  0  0  0  0  0  0
  -11.0527   -1.1038    0.0000 O   0  0  0  0  0  0  0  0  0  0  0  0
  -10.1863   -0.6046    0.0000 C   0  0  0  0  0  0  0  0  0  0  0  0
  -10.1855    0.3954    0.0000 O   0  0  0  0  0  0  0  0  0  0  0  0
   -9.3207   -1.1052    0.0000 N   0  0  0  0  0  0  0  0  0  0  0  0
   -8.4543   -0.6060    0.0000 C   0  0  0  0  0  0  0  0  0  0  0  0
   -7.5887   -1.1066    0.0000 C   0  0  0  0  0  0  0  0  0  0  0  0
   -6.7223   -0.6074    0.0000 O   0  0  0  0  0  0  0  0  0  0  0  0
   -5.8567   -1.1080    0.0000 C   0  0  0  0  0  0  0  0  0  0  0  0
   -4.9903   -0.6086    0.0000 C   0  0  0  0  0  0  0  0  0  0  0  0
   -4.1247   -1.1094    0.0000 O   0  0  0  0  0  0  0  0  0  0  0  0
   -3.2583   -0.6100    0.0000 C   0  0  0  0  0  0  0  0  0  0  0  0
   -2.3927   -1.1108    0.0000 C   0  0  0  0  0  0  0  0  0  0  0  0
   -1.5263   -0.6114    0.0000 O   0  0  0  0  0  0  0  0  0  0  0  0
   -0.6607   -1.1122    0.0000 C   0  0  0  0  0  0  0  0  0  0  0  0
    0.2057   -0.6128    0.0000 C   0  0  0  0  0  0  0  0  0  0  0  0
    1.0713   -1.1136    0.0000 O   0  0  0  0  0  0  0  0  0  0  0  0
    1.9377   -0.6142    0.0000 C   0  0  0  0  0  0  0  0  0  0  0  0
    2.8033   -1.1148    0.0000 C   0  0  0  0  0  0  0  0  0  0  0  0
    3.6697   -0.6156    0.0000 N   0  0  0  0  0  0  0  0  0  0  0  0
    3.6705    0.3844    0.0000 C   0  0  0  0  0  0  0  0  0  0  0  0
    4.5369    0.8836    0.0000 C   0  0  0  0  0  0  0  0  0  0  0  0
    5.4025    0.3830    0.0000 N   0  0  0  0  0  0  0  0  0  0  0  0
    5.4017   -0.6170    0.0000 C   0  0  0  0  0  0  0  0  0  0  0  0
    4.5353   -1.1162    0.0000 C   0  0  0  0  0  0  0  0  0  0  0  0
    6.2689    0.8824    0.0000 C   0  0  0  0  0  0  0  0  0  0  0  0
    6.2697    1.8824    0.0000 C   0  0  0  0  0  0  0  0  0  0  0  0
    7.1361    2.3816    0.0000 C   0  0  0  0  0  0  0  0  0  0  0  0
    7.1369    3.3818    0.0000 C   0  0  0  0  0  0  0  0  0  0  0  0
    6.2713    3.8822    0.0000 C   0  0  0  0  0  0  0  0  0  0  0  0
    5.4049    3.3830    0.0000 C   0  0  0  0  0  0  0  0  0  0  0  0
    5.4041    2.3830    0.0000 C   0  0  0  0  0  0  0  0  0  0  0  0
    7.1345    0.3818    0.0000 C   0  0  0  0  0  0  0  0  0  0  0  0
    7.1337   -0.6184    0.0000 C   0  0  0  0  0  0  0  0  0  0  0  0
    7.9993   -1.1190    0.0000 C   0  0  0  0  0  0  0  0  0  0  0  0
    8.8657   -0.6198    0.0000 C   0  0  0  0  0  0  0  0  0  0  0  0
    9.7313   -1.1204    0.0000 Cl  0  0  0  0  0  0  0  0  0  0  0  0
    8.8665    0.3804    0.0000 C   0  0  0  0  0  0  0  0  0  0  0  0
    8.0009    0.8808    0.0000 C   0  0  0  0  0  0  0  0  0  0  0  0
  1  2  1  0
  2  3  1  0
  2  4  1  0
  2  5  1  0
  5  6  1  0
  6  7  2  0
  6  8  1  0
  8  9  1  0
  9 10  1  0
 10 11  1  0
 11 12  1  0
 12 13  1  0
 13 14  1  0
 14 15  1  0
 15 16  1  0
 16 17  1  0
 17 18  1  0
 18 19  1  0
 19 20  1  0
 20 21  1  0
 21 22  1  0
 22 23  1  0
 23 24  1  0
 24 25  1  0
 25 26  1  0
 26 27  1  0
 27 28  1  0
 26 29  1  0
 29 30  1  0
 30 31  2  0
 31 32  1  0
 32 33  2  0
 33 34  1  0
 34 35  2  0
 29 36  1  0
 36 37  2  0
 37 38  1  0
 38 39  2  0
 39 40  1  0
 39 41  1  0
 41 42  2  0
 28 23  1  0
 35 30  1  0
 42 36  1  0
M  END
>  <HCV EC50 (uM)>  (36) 
0.199 +/- 0.030

>  <Huh 7.5.1 CC50 (uM)>  (36) 
19.0 +/- 4.0

>  <Selectivity Index>  (36) 
95

>  <HepG2 CC50 (uM)>  (36) 


>  <Primary human hepatocyte CC50 (uM)>  (36) 


>  <Selectivity index>  (36) 


>  <H1HR %DMSO at 10nM>  (36) 


>  <HCVsc %DMSO>  (36) 


>  <HCVpp %DMSO GT1a>  (36) 


>  <HCVpp %DMSO GT1b>  (36) 


>  <MLVpp %DMSO>  (36) 


>  <VSV-Gpp %DMSO>  (36) 


>  <Replicon %DMSO GT2a>  (36) 


>  <Human microsomal t1/2 (min)>  (36) 


>  <Mouse microsomal t1/2 (min)>  (36) 


>  <Rat microsomal t1/2 (min)>  (36) 


>  <Permeability (10-6 cm/s)>  (36) 


>  <Solubility (?g/mL)>  (36) 


$$$$
Rac-25
     RDKit          2D

 35 37  0  0  0  0  0  0  0  0999 V2000
  -11.6053   -1.1764    0.0000 N   0  0  0  0  0  0  0  0  0  0  0  0
  -10.7389   -0.6772    0.0000 C   0  0  0  0  0  0  0  0  0  0  0  0
   -9.8733   -1.1778    0.0000 C   0  0  0  0  0  0  0  0  0  0  0  0
   -9.0069   -0.6786    0.0000 O   0  0  0  0  0  0  0  0  0  0  0  0
   -8.1413   -1.1792    0.0000 C   0  0  0  0  0  0  0  0  0  0  0  0
   -7.2749   -0.6800    0.0000 C   0  0  0  0  0  0  0  0  0  0  0  0
   -6.4093   -1.1806    0.0000 O   0  0  0  0  0  0  0  0  0  0  0  0
   -5.5429   -0.6814    0.0000 C   0  0  0  0  0  0  0  0  0  0  0  0
   -4.6773   -1.1820    0.0000 C   0  0  0  0  0  0  0  0  0  0  0  0
   -3.8109   -0.6826    0.0000 O   0  0  0  0  0  0  0  0  0  0  0  0
   -2.9453   -1.1834    0.0000 C   0  0  0  0  0  0  0  0  0  0  0  0
   -2.0789   -0.6840    0.0000 C   0  0  0  0  0  0  0  0  0  0  0  0
   -1.2133   -1.1848    0.0000 O   0  0  0  0  0  0  0  0  0  0  0  0
   -0.3469   -0.6854    0.0000 C   0  0  0  0  0  0  0  0  0  0  0  0
    0.5187   -1.1862    0.0000 C   0  0  0  0  0  0  0  0  0  0  0  0
    1.3849   -0.6868    0.0000 N   0  0  0  0  0  0  0  0  0  0  0  0
    1.3857    0.3132    0.0000 C   0  0  0  0  0  0  0  0  0  0  0  0
    2.2523    0.8124    0.0000 C   0  0  0  0  0  0  0  0  0  0  0  0
    3.1179    0.3118    0.0000 N   0  0  0  0  0  0  0  0  0  0  0  0
    3.1171   -0.6882    0.0000 C   0  0  0  0  0  0  0  0  0  0  0  0
    2.2507   -1.1874    0.0000 C   0  0  0  0  0  0  0  0  0  0  0  0
    3.9843    0.8112    0.0000 C   0  0  0  0  0  0  0  0  0  0  0  0
    3.9851    1.8112    0.0000 C   0  0  0  0  0  0  0  0  0  0  0  0
    4.8515    2.3104    0.0000 C   0  0  0  0  0  0  0  0  0  0  0  0
    4.8523    3.3104    0.0000 C   0  0  0  0  0  0  0  0  0  0  0  0
    3.9867    3.8110    0.0000 C   0  0  0  0  0  0  0  0  0  0  0  0
    3.1201    3.3118    0.0000 C   0  0  0  0  0  0  0  0  0  0  0  0
    3.1193    2.3118    0.0000 C   0  0  0  0  0  0  0  0  0  0  0  0
    4.8497    0.3104    0.0000 C   0  0  0  0  0  0  0  0  0  0  0  0
    4.8489   -0.6896    0.0000 C   0  0  0  0  0  0  0  0  0  0  0  0
    5.7147   -1.1902    0.0000 C   0  0  0  0  0  0  0  0  0  0  0  0
    6.5811   -0.6910    0.0000 C   0  0  0  0  0  0  0  0  0  0  0  0
    7.4467   -1.1916    0.0000 Cl  0  0  0  0  0  0  0  0  0  0  0  0
    6.5819    0.3090    0.0000 C   0  0  0  0  0  0  0  0  0  0  0  0
    5.7163    0.8096    0.0000 C   0  0  0  0  0  0  0  0  0  0  0  0
  1  2  1  0
  2  3  1  0
  3  4  1  0
  4  5  1  0
  5  6  1  0
  6  7  1  0
  7  8  1  0
  8  9  1  0
  9 10  1  0
 10 11  1  0
 11 12  1  0
 12 13  1  0
 13 14  1  0
 14 15  1  0
 15 16  1  0
 16 17  1  0
 17 18  1  0
 18 19  1  0
 19 20  1  0
 20 21  1  0
 19 22  1  0
 22 23  1  0
 23 24  2  0
 24 25  1  0
 25 26  2  0
 26 27  1  0
 27 28  2  0
 22 29  1  0
 29 30  2  0
 30 31  1  0
 31 32  2  0
 32 33  1  0
 32 34  1  0
 34 35  2  0
 21 16  1  0
 28 23  1  0
 35 29  1  0
M  END
>  <HCV EC50 (uM)>  (37) 
0.028 +/- 0.007

>  <Huh 7.5.1 CC50 (uM)>  (37) 
12.2 +/- 0.8

>  <Selectivity Index>  (37) 
436

>  <HepG2 CC50 (uM)>  (37) 
12.6

>  <Primary human hepatocyte CC50 (uM)>  (37) 
9.39

>  <Selectivity index>  (37) 
436

>  <H1HR %DMSO at 10nM>  (37) 
54.1

>  <HCVsc %DMSO>  (37) 
1.4

>  <HCVpp %DMSO GT1a>  (37) 
95.8

>  <HCVpp %DMSO GT1b>  (37) 
91.7

>  <MLVpp %DMSO>  (37) 
117

>  <VSV-Gpp %DMSO>  (37) 
99.8

>  <Replicon %DMSO GT2a>  (37) 
63.6

>  <Human microsomal t1/2 (min)>  (37) 
26.2

>  <Mouse microsomal t1/2 (min)>  (37) 
29.1

>  <Rat microsomal t1/2 (min)>  (37) 
11.7

>  <Permeability (10-6 cm/s)>  (37) 
682.1

>  <Solubility (?g/mL)>  (37) 
46

$$$$
Rac-26
     RDKit          2D

 38 40  0  0  0  0  0  0  0  0999 V2000
  -12.3300   -1.1349    0.0000 C   0  0  0  0  0  0  0  0  0  0  0  0
  -11.4636   -0.6357    0.0000 C   0  0  0  0  0  0  0  0  0  0  0  0
  -11.4628    0.3643    0.0000 O   0  0  0  0  0  0  0  0  0  0  0  0
  -10.5980   -1.1363    0.0000 N   0  0  0  0  0  0  0  0  0  0  0  0
   -9.7316   -0.6369    0.0000 C   0  0  0  0  0  0  0  0  0  0  0  0
   -8.8660   -1.1377    0.0000 C   0  0  0  0  0  0  0  0  0  0  0  0
   -7.9996   -0.6383    0.0000 O   0  0  0  0  0  0  0  0  0  0  0  0
   -7.1340   -1.1391    0.0000 C   0  0  0  0  0  0  0  0  0  0  0  0
   -6.2676   -0.6397    0.0000 C   0  0  0  0  0  0  0  0  0  0  0  0
   -5.4020   -1.1405    0.0000 O   0  0  0  0  0  0  0  0  0  0  0  0
   -4.5356   -0.6411    0.0000 C   0  0  0  0  0  0  0  0  0  0  0  0
   -3.6700   -1.1419    0.0000 C   0  0  0  0  0  0  0  0  0  0  0  0
   -2.8036   -0.6425    0.0000 O   0  0  0  0  0  0  0  0  0  0  0  0
   -1.9380   -1.1431    0.0000 C   0  0  0  0  0  0  0  0  0  0  0  0
   -1.0716   -0.6439    0.0000 C   0  0  0  0  0  0  0  0  0  0  0  0
   -0.2060   -1.1445    0.0000 O   0  0  0  0  0  0  0  0  0  0  0  0
    0.6604   -0.6453    0.0000 C   0  0  0  0  0  0  0  0  0  0  0  0
    1.5260   -1.1459    0.0000 C   0  0  0  0  0  0  0  0  0  0  0  0
    2.3924   -0.6467    0.0000 N   0  0  0  0  0  0  0  0  0  0  0  0
    2.3932    0.3535    0.0000 C   0  0  0  0  0  0  0  0  0  0  0  0
    3.2596    0.8525    0.0000 C   0  0  0  0  0  0  0  0  0  0  0  0
    4.1252    0.3521    0.0000 N   0  0  0  0  0  0  0  0  0  0  0  0
    4.1246   -0.6481    0.0000 C   0  0  0  0  0  0  0  0  0  0  0  0
    3.2580   -1.1473    0.0000 C   0  0  0  0  0  0  0  0  0  0  0  0
    4.9916    0.8513    0.0000 C   0  0  0  0  0  0  0  0  0  0  0  0
    4.9924    1.8513    0.0000 C   0  0  0  0  0  0  0  0  0  0  0  0
    5.8588    2.3505    0.0000 C   0  0  0  0  0  0  0  0  0  0  0  0
    5.8596    3.3507    0.0000 C   0  0  0  0  0  0  0  0  0  0  0  0
    4.9940    3.8513    0.0000 C   0  0  0  0  0  0  0  0  0  0  0  0
    4.1276    3.3521    0.0000 C   0  0  0  0  0  0  0  0  0  0  0  0
    4.1268    2.3519    0.0000 C   0  0  0  0  0  0  0  0  0  0  0  0
    5.8572    0.3507    0.0000 C   0  0  0  0  0  0  0  0  0  0  0  0
    5.8564   -0.6495    0.0000 C   0  0  0  0  0  0  0  0  0  0  0  0
    6.7220   -1.1501    0.0000 C   0  0  0  0  0  0  0  0  0  0  0  0
    7.5886   -0.6509    0.0000 C   0  0  0  0  0  0  0  0  0  0  0  0
    8.4540   -1.1515    0.0000 Cl  0  0  0  0  0  0  0  0  0  0  0  0
    7.5894    0.3493    0.0000 C   0  0  0  0  0  0  0  0  0  0  0  0
    6.7236    0.8499    0.0000 C   0  0  0  0  0  0  0  0  0  0  0  0
  1  2  1  0
  2  3  2  0
  2  4  1  0
  4  5  1  0
  5  6  1  0
  6  7  1  0
  7  8  1  0
  8  9  1  0
  9 10  1  0
 10 11  1  0
 11 12  1  0
 12 13  1  0
 13 14  1  0
 14 15  1  0
 15 16  1  0
 16 17  1  0
 17 18  1  0
 18 19  1  0
 19 20  1  0
 20 21  1  0
 21 22  1  0
 22 23  1  0
 23 24  1  0
 22 25  1  0
 25 26  1  0
 26 27  2  0
 27 28  1  0
 28 29  2  0
 29 30  1  0
 30 31  2  0
 25 32  1  0
 32 33  2  0
 33 34  1  0
 34 35  2  0
 35 36  1  0
 35 37  1  0
 37 38  2  0
 24 19  1  0
 31 26  1  0
 38 32  1  0
M  END
>  <HCV EC50 (uM)>  (38) 
0.170 +/- 0.022

>  <Huh 7.5.1 CC50 (uM)>  (38) 
> 100

>  <Selectivity Index>  (38) 
> 588

>  <HepG2 CC50 (uM)>  (38) 


>  <Primary human hepatocyte CC50 (uM)>  (38) 


>  <Selectivity index>  (38) 


>  <H1HR %DMSO at 10nM>  (38) 


>  <HCVsc %DMSO>  (38) 


>  <HCVpp %DMSO GT1a>  (38) 


>  <HCVpp %DMSO GT1b>  (38) 


>  <MLVpp %DMSO>  (38) 


>  <VSV-Gpp %DMSO>  (38) 


>  <Replicon %DMSO GT2a>  (38) 


>  <Human microsomal t1/2 (min)>  (38) 


>  <Mouse microsomal t1/2 (min)>  (38) 


>  <Rat microsomal t1/2 (min)>  (38) 


>  <Permeability (10-6 cm/s)>  (38) 


>  <Solubility (?g/mL)>  (38) 


$$$$
27
     RDKit          2D

 16 17  0  0  0  0  0  0  0  0999 V2000
    0.8190   -3.5295    0.0000 Cl  0  0  0  0  0  0  0  0  0  0  0  0
    0.8170   -2.5295    0.0000 C   0  0  0  0  0  0  0  0  0  0  0  0
    1.6820   -2.0279    0.0000 C   0  0  0  0  0  0  0  0  0  0  0  0
    1.6800   -1.0279    0.0000 C   0  0  0  0  0  0  0  0  0  0  0  0
    0.8130   -0.5297    0.0000 C   0  0  0  0  0  0  0  0  0  0  0  0
    0.8108    0.4703    0.0000 C   0  0  0  0  0  0  0  0  0  0  0  0
   -0.0562    0.9685    0.0000 C   0  0  0  0  0  0  0  0  0  0  0  0
   -0.9212    0.4669    0.0000 C   0  0  0  0  0  0  0  0  0  0  0  0
   -1.7882    0.9651    0.0000 C   0  0  0  0  0  0  0  0  0  0  0  0
   -1.7902    1.9651    0.0000 C   0  0  0  0  0  0  0  0  0  0  0  0
   -0.9252    2.4669    0.0000 C   0  0  0  0  0  0  0  0  0  0  0  0
   -0.0582    1.9685    0.0000 C   0  0  0  0  0  0  0  0  0  0  0  0
   -2.6572    2.4633    0.0000 Cl  0  0  0  0  0  0  0  0  0  0  0  0
    1.6760    0.9721    0.0000 O   0  0  0  0  0  0  0  0  0  0  0  0
   -0.0520   -1.0313    0.0000 C   0  0  0  0  0  0  0  0  0  0  0  0
   -0.0500   -2.0313    0.0000 C   0  0  0  0  0  0  0  0  0  0  0  0
  1  2  1  0
  2  3  2  0
  3  4  1  0
  4  5  2  0
  5  6  1  0
  6  7  1  0
  7  8  2  0
  8  9  1  0
  9 10  2  0
 10 11  1  0
 11 12  2  0
 10 13  1  0
  6 14  2  0
  5 15  1  0
 15 16  2  0
 16  2  1  0
 12  7  1  0
M  END
>  <HCV EC50 (uM)>  (39) 


>  <Huh 7.5.1 CC50 (uM)>  (39) 


>  <Selectivity Index>  (39) 


>  <HepG2 CC50 (uM)>  (39) 


>  <Primary human hepatocyte CC50 (uM)>  (39) 


>  <Selectivity index>  (39) 


>  <H1HR %DMSO at 10nM>  (39) 


>  <HCVsc %DMSO>  (39) 


>  <HCVpp %DMSO GT1a>  (39) 


>  <HCVpp %DMSO GT1b>  (39) 


>  <MLVpp %DMSO>  (39) 


>  <VSV-Gpp %DMSO>  (39) 


>  <Replicon %DMSO GT2a>  (39) 


>  <Human microsomal t1/2 (min)>  (39) 


>  <Mouse microsomal t1/2 (min)>  (39) 


>  <Rat microsomal t1/2 (min)>  (39) 


>  <Permeability (10-6 cm/s)>  (39) 


>  <Solubility (?g/mL)>  (39) 


$$$$
28
     RDKit          2D

 16 17  0  0  0  0  0  0  0  0999 V2000
    0.8190    3.5295    0.0000 Cl  0  0  0  0  0  0  0  0  0  0  0  0
    0.8170    2.5295    0.0000 C   0  0  0  0  0  0  0  0  0  0  0  0
    1.6820    2.0279    0.0000 C   0  0  0  0  0  0  0  0  0  0  0  0
    1.6800    1.0279    0.0000 C   0  0  0  0  0  0  0  0  0  0  0  0
    0.8130    0.5297    0.0000 C   0  0  0  0  0  0  0  0  0  0  0  0
    0.8108   -0.4703    0.0000 C   0  0  0  0  0  0  0  0  0  0  0  0
   -0.0562   -0.9685    0.0000 C   0  0  0  0  0  0  0  0  0  0  0  0
   -0.9212   -0.4669    0.0000 C   0  0  0  0  0  0  0  0  0  0  0  0
   -1.7882   -0.9651    0.0000 C   0  0  0  0  0  0  0  0  0  0  0  0
   -1.7902   -1.9651    0.0000 C   0  0  0  0  0  0  0  0  0  0  0  0
   -0.9252   -2.4669    0.0000 C   0  0  0  0  0  0  0  0  0  0  0  0
   -0.0582   -1.9685    0.0000 C   0  0  0  0  0  0  0  0  0  0  0  0
   -2.6572   -2.4633    0.0000 Cl  0  0  0  0  0  0  0  0  0  0  0  0
    1.6760   -0.9721    0.0000 Cl  0  0  0  0  0  0  0  0  0  0  0  0
   -0.0520    1.0313    0.0000 C   0  0  0  0  0  0  0  0  0  0  0  0
   -0.0500    2.0313    0.0000 C   0  0  0  0  0  0  0  0  0  0  0  0
  1  2  1  0
  2  3  2  0
  3  4  1  0
  4  5  2  0
  5  6  1  0
  6  7  1  0
  7  8  2  0
  8  9  1  0
  9 10  2  0
 10 11  1  0
 11 12  2  0
 10 13  1  0
  6 14  1  0
  5 15  1  0
 15 16  2  0
 16  2  1  0
 12  7  1  0
M  END
>  <HCV EC50 (uM)>  (40) 


>  <Huh 7.5.1 CC50 (uM)>  (40) 


>  <Selectivity Index>  (40) 


>  <HepG2 CC50 (uM)>  (40) 


>  <Primary human hepatocyte CC50 (uM)>  (40) 


>  <Selectivity index>  (40) 


>  <H1HR %DMSO at 10nM>  (40) 


>  <HCVsc %DMSO>  (40) 


>  <HCVpp %DMSO GT1a>  (40) 


>  <HCVpp %DMSO GT1b>  (40) 


>  <MLVpp %DMSO>  (40) 


>  <VSV-Gpp %DMSO>  (40) 


>  <Replicon %DMSO GT2a>  (40) 


>  <Human microsomal t1/2 (min)>  (40) 


>  <Mouse microsomal t1/2 (min)>  (40) 


>  <Rat microsomal t1/2 (min)>  (40) 


>  <Permeability (10-6 cm/s)>  (40) 


>  <Solubility (?g/mL)>  (40) 


$$$$
29
     RDKit          2D

 21 23  0  0  0  0  0  0  0  0999 V2000
    0.1728    3.9044    0.0000 Cl  0  0  0  0  0  0  0  0  0  0  0  0
    0.1708    2.9044    0.0000 C   0  0  0  0  0  0  0  0  0  0  0  0
    1.0358    2.4026    0.0000 C   0  0  0  0  0  0  0  0  0  0  0  0
    1.0338    1.4028    0.0000 C   0  0  0  0  0  0  0  0  0  0  0  0
    0.1668    0.9044    0.0000 C   0  0  0  0  0  0  0  0  0  0  0  0
   -0.6982    1.4062    0.0000 C   0  0  0  0  0  0  0  0  0  0  0  0
   -0.6962    2.4062    0.0000 C   0  0  0  0  0  0  0  0  0  0  0  0
    0.1648   -0.0956    0.0000 C   0  0  0  0  0  0  0  0  0  0  0  0
    1.0298   -0.5972    0.0000 N   0  0  0  0  0  0  0  0  0  0  0  0
    1.0278   -1.5972    0.0000 C   0  0  0  0  0  0  0  0  0  0  0  0
    1.8928   -2.0990    0.0000 C   0  0  0  0  0  0  0  0  0  0  0  0
    2.7598   -1.6006    0.0000 N   0  0  0  0  0  0  0  0  0  0  0  0
    2.7618   -0.6006    0.0000 C   0  0  0  0  0  0  0  0  0  0  0  0
    1.8968   -0.0990    0.0000 C   0  0  0  0  0  0  0  0  0  0  0  0
   -0.7022   -0.5938    0.0000 C   0  0  0  0  0  0  0  0  0  0  0  0
   -1.5672   -0.0920    0.0000 C   0  0  0  0  0  0  0  0  0  0  0  0
   -2.4342   -0.5904    0.0000 C   0  0  0  0  0  0  0  0  0  0  0  0
   -2.4362   -1.5904    0.0000 C   0  0  0  0  0  0  0  0  0  0  0  0
   -3.3034   -2.0886    0.0000 Cl  0  0  0  0  0  0  0  0  0  0  0  0
   -1.5712   -2.0920    0.0000 C   0  0  0  0  0  0  0  0  0  0  0  0
   -0.7042   -1.5938    0.0000 C   0  0  0  0  0  0  0  0  0  0  0  0
  1  2  1  0
  2  3  2  0
  3  4  1  0
  4  5  2  0
  5  6  1  0
  6  7  2  0
  5  8  1  0
  8  9  1  0
  9 10  1  0
 10 11  1  0
 11 12  1  0
 12 13  1  0
 13 14  1  0
  8 15  1  0
 15 16  2  0
 16 17  1  0
 17 18  2  0
 18 19  1  0
 18 20  1  0
 20 21  2  0
  7  2  1  0
 14  9  1  0
 21 15  1  0
M  END
>  <HCV EC50 (uM)>  (41) 
0.033 +/- 0.007

>  <Huh 7.5.1 CC50 (uM)>  (41) 
5.64 +/- 0.80

>  <Selectivity Index>  (41) 
201

>  <HepG2 CC50 (uM)>  (41) 
4.28

>  <Primary human hepatocyte CC50 (uM)>  (41) 
4.18

>  <Selectivity index>  (41) 
171

>  <H1HR %DMSO at 10nM>  (41) 
90.8

>  <HCVsc %DMSO>  (41) 
10.2

>  <HCVpp %DMSO GT1a>  (41) 
107

>  <HCVpp %DMSO GT1b>  (41) 
137

>  <MLVpp %DMSO>  (41) 
120

>  <VSV-Gpp %DMSO>  (41) 
115

>  <Replicon %DMSO GT2a>  (41) 
147

>  <Human microsomal t1/2 (min)>  (41) 
>30

>  <Mouse microsomal t1/2 (min)>  (41) 
17.3

>  <Rat microsomal t1/2 (min)>  (41) 
20.7

>  <Permeability (10-6 cm/s)>  (41) 
NT

>  <Solubility (?g/mL)>  (41) 
19.9

$$$$
30
     RDKit          2D

 22 24  0  0  0  0  0  0  0  0999 V2000
   -3.4656   -1.9972    0.0000 C   0  0  0  0  0  0  0  0  0  0  0  0
   -2.5992   -1.4980    0.0000 N   0  0  0  0  0  0  0  0  0  0  0  0
   -1.7336   -1.9986    0.0000 C   0  0  0  0  0  0  0  0  0  0  0  0
   -0.8672   -1.4994    0.0000 C   0  0  0  0  0  0  0  0  0  0  0  0
   -0.8664   -0.4994    0.0000 N   0  0  0  0  0  0  0  0  0  0  0  0
   -1.7320    0.0014    0.0000 C   0  0  0  0  0  0  0  0  0  0  0  0
   -2.5984   -0.4980    0.0000 C   0  0  0  0  0  0  0  0  0  0  0  0
    0.0000    0.0000    0.0000 C   0  0  0  0  0  0  0  0  0  0  0  0
    0.8656   -0.5006    0.0000 C   0  0  0  0  0  0  0  0  0  0  0  0
    1.7320   -0.0014    0.0000 C   0  0  0  0  0  0  0  0  0  0  0  0
    2.5976   -0.5020    0.0000 C   0  0  0  0  0  0  0  0  0  0  0  0
    2.5968   -1.5020    0.0000 C   0  0  0  0  0  0  0  0  0  0  0  0
    3.4624   -2.0028    0.0000 Cl  0  0  0  0  0  0  0  0  0  0  0  0
    1.7304   -2.0014    0.0000 C   0  0  0  0  0  0  0  0  0  0  0  0
    0.8648   -1.5006    0.0000 C   0  0  0  0  0  0  0  0  0  0  0  0
    0.0008    1.0000    0.0000 C   0  0  0  0  0  0  0  0  0  0  0  0
   -0.8648    1.5006    0.0000 C   0  0  0  0  0  0  0  0  0  0  0  0
   -0.8640    2.5006    0.0000 C   0  0  0  0  0  0  0  0  0  0  0  0
    0.0024    3.0000    0.0000 C   0  0  0  0  0  0  0  0  0  0  0  0
    0.0032    4.0000    0.0000 Cl  0  0  0  0  0  0  0  0  0  0  0  0
    0.8680    2.4994    0.0000 C   0  0  0  0  0  0  0  0  0  0  0  0
    0.8672    1.4994    0.0000 C   0  0  0  0  0  0  0  0  0  0  0  0
  1  2  1  0
  2  3  1  0
  3  4  1  0
  4  5  1  0
  5  6  1  0
  6  7  1  0
  5  8  1  0
  8  9  1  0
  9 10  2  0
 10 11  1  0
 11 12  2  0
 12 13  1  0
 12 14  1  0
 14 15  2  0
  8 16  1  0
 16 17  2  0
 17 18  1  0
 18 19  2  0
 19 20  1  0
 19 21  1  0
 21 22  2  0
  7  2  1  0
 15  9  1  0
 22 16  1  0
M  END
>  <HCV EC50 (uM)>  (42) 
0.017 +/- 0.005

>  <Huh 7.5.1 CC50 (uM)>  (42) 
21.3 +/- 2.3

>  <Selectivity Index>  (42) 
1253

>  <HepG2 CC50 (uM)>  (42) 
31.6

>  <Primary human hepatocyte CC50 (uM)>  (42) 
> 31.6

>  <Selectivity index>  (42) 
1253

>  <H1HR %DMSO at 10nM>  (42) 
18.5

>  <HCVsc %DMSO>  (42) 
12.4

>  <HCVpp %DMSO GT1a>  (42) 
76.2

>  <HCVpp %DMSO GT1b>  (42) 
91.9

>  <MLVpp %DMSO>  (42) 
116

>  <VSV-Gpp %DMSO>  (42) 
119

>  <Replicon %DMSO GT2a>  (42) 
112

>  <Human microsomal t1/2 (min)>  (42) 
>120

>  <Mouse microsomal t1/2 (min)>  (42) 
91

>  <Rat microsomal t1/2 (min)>  (42) 
26

>  <Permeability (10-6 cm/s)>  (42) 
1024.3

>  <Solubility (?g/mL)>  (42) 
> 49.0

$$$$
31
     RDKit          2D

 23 25  0  0  0  0  0  0  0  0999 V2000
   -4.1406   -1.4381    0.0000 C   0  0  0  0  0  0  0  0  0  0  0  0
   -3.2742   -1.9373    0.0000 C   0  0  0  0  0  0  0  0  0  0  0  0
   -2.4086   -1.4367    0.0000 N   0  0  0  0  0  0  0  0  0  0  0  0
   -2.4094   -0.4367    0.0000 C   0  0  0  0  0  0  0  0  0  0  0  0
   -1.5438    0.0641    0.0000 C   0  0  0  0  0  0  0  0  0  0  0  0
   -0.6774   -0.4353    0.0000 N   0  0  0  0  0  0  0  0  0  0  0  0
   -0.6766   -1.4353    0.0000 C   0  0  0  0  0  0  0  0  0  0  0  0
   -1.5422   -1.9359    0.0000 C   0  0  0  0  0  0  0  0  0  0  0  0
    0.1882    0.0655    0.0000 C   0  0  0  0  0  0  0  0  0  0  0  0
    1.0546   -0.4339    0.0000 C   0  0  0  0  0  0  0  0  0  0  0  0
    1.0554   -1.4339    0.0000 C   0  0  0  0  0  0  0  0  0  0  0  0
    1.9218   -1.9333    0.0000 C   0  0  0  0  0  0  0  0  0  0  0  0
    2.7874   -1.4325    0.0000 C   0  0  0  0  0  0  0  0  0  0  0  0
    3.6538   -1.9319    0.0000 Cl  0  0  0  0  0  0  0  0  0  0  0  0
    2.7866   -0.4325    0.0000 C   0  0  0  0  0  0  0  0  0  0  0  0
    1.9202    0.0667    0.0000 C   0  0  0  0  0  0  0  0  0  0  0  0
    0.1874    1.0655    0.0000 C   0  0  0  0  0  0  0  0  0  0  0  0
    1.0530    1.5661    0.0000 C   0  0  0  0  0  0  0  0  0  0  0  0
    1.0522    2.5661    0.0000 C   0  0  0  0  0  0  0  0  0  0  0  0
    0.1858    3.0655    0.0000 C   0  0  0  0  0  0  0  0  0  0  0  0
    0.1850    4.0655    0.0000 Cl  0  0  0  0  0  0  0  0  0  0  0  0
   -0.6798    2.5647    0.0000 C   0  0  0  0  0  0  0  0  0  0  0  0
   -0.6790    1.5647    0.0000 C   0  0  0  0  0  0  0  0  0  0  0  0
  1  2  1  0
  2  3  1  0
  3  4  1  0
  4  5  1  0
  5  6  1  0
  6  7  1  0
  7  8  1  0
  6  9  1  0
  9 10  1  0
 10 11  2  0
 11 12  1  0
 12 13  2  0
 13 14  1  0
 13 15  1  0
 15 16  2  0
  9 17  1  0
 17 18  2  0
 18 19  1  0
 19 20  2  0
 20 21  1  0
 20 22  1  0
 22 23  2  0
  8  3  1  0
 16 10  1  0
 23 17  1  0
M  END
>  <HCV EC50 (uM)>  (43) 
0.0023 +/- 0.0007

>  <Huh 7.5.1 CC50 (uM)>  (43) 
19.8 +/- 1.9

>  <Selectivity Index>  (43) 
8609

>  <HepG2 CC50 (uM)>  (43) 
56

>  <Primary human hepatocyte CC50 (uM)>  (43) 
24.3

>  <Selectivity index>  (43) 
8609

>  <H1HR %DMSO at 10nM>  (43) 
31.7

>  <HCVsc %DMSO>  (43) 
10.1

>  <HCVpp %DMSO GT1a>  (43) 
76.6

>  <HCVpp %DMSO GT1b>  (43) 
108

>  <MLVpp %DMSO>  (43) 
96.5

>  <VSV-Gpp %DMSO>  (43) 
110

>  <Replicon %DMSO GT2a>  (43) 
128

>  <Human microsomal t1/2 (min)>  (43) 
~30

>  <Mouse microsomal t1/2 (min)>  (43) 
12.6

>  <Rat microsomal t1/2 (min)>  (43) 
2.2

>  <Permeability (10-6 cm/s)>  (43) 
892.3

>  <Solubility (?g/mL)>  (43) 
17.7

$$$$
32
     RDKit          2D

 21 23  0  0  0  0  0  0  0  0999 V2000
    0.1728    3.9044    0.0000 Cl  0  0  0  0  0  0  0  0  0  0  0  0
    0.1708    2.9044    0.0000 C   0  0  0  0  0  0  0  0  0  0  0  0
    1.0358    2.4026    0.0000 C   0  0  0  0  0  0  0  0  0  0  0  0
    1.0338    1.4028    0.0000 C   0  0  0  0  0  0  0  0  0  0  0  0
    0.1668    0.9044    0.0000 C   0  0  0  0  0  0  0  0  0  0  0  0
   -0.6982    1.4062    0.0000 C   0  0  0  0  0  0  0  0  0  0  0  0
   -0.6962    2.4062    0.0000 C   0  0  0  0  0  0  0  0  0  0  0  0
    0.1648   -0.0956    0.0000 C   0  0  0  0  0  0  0  0  0  0  0  0
    1.0298   -0.5972    0.0000 N   0  0  0  0  0  0  0  0  0  0  0  0
    1.0278   -1.5972    0.0000 C   0  0  0  0  0  0  0  0  0  0  0  0
    1.8928   -2.0990    0.0000 C   0  0  0  0  0  0  0  0  0  0  0  0
    2.7598   -1.6006    0.0000 C   0  0  0  0  0  0  0  0  0  0  0  0
    2.7618   -0.6006    0.0000 C   0  0  0  0  0  0  0  0  0  0  0  0
    1.8968   -0.0990    0.0000 C   0  0  0  0  0  0  0  0  0  0  0  0
   -0.7022   -0.5938    0.0000 C   0  0  0  0  0  0  0  0  0  0  0  0
   -1.5672   -0.0920    0.0000 C   0  0  0  0  0  0  0  0  0  0  0  0
   -2.4342   -0.5904    0.0000 C   0  0  0  0  0  0  0  0  0  0  0  0
   -2.4362   -1.5904    0.0000 C   0  0  0  0  0  0  0  0  0  0  0  0
   -3.3034   -2.0886    0.0000 Cl  0  0  0  0  0  0  0  0  0  0  0  0
   -1.5712   -2.0920    0.0000 C   0  0  0  0  0  0  0  0  0  0  0  0
   -0.7042   -1.5938    0.0000 C   0  0  0  0  0  0  0  0  0  0  0  0
  1  2  1  0
  2  3  2  0
  3  4  1  0
  4  5  2  0
  5  6  1  0
  6  7  2  0
  5  8  1  0
  8  9  1  0
  9 10  1  0
 10 11  1  0
 11 12  1  0
 12 13  1  0
 13 14  1  0
  8 15  1  0
 15 16  2  0
 16 17  1  0
 17 18  2  0
 18 19  1  0
 18 20  1  0
 20 21  2  0
  7  2  1  0
 14  9  1  0
 21 15  1  0
M  END
>  <HCV EC50 (uM)>  (44) 
17.4 +/- 2.8

>  <Huh 7.5.1 CC50 (uM)>  (44) 
69.0 +/- 0.9

>  <Selectivity Index>  (44) 
4

>  <HepG2 CC50 (uM)>  (44) 


>  <Primary human hepatocyte CC50 (uM)>  (44) 


>  <Selectivity index>  (44) 


>  <H1HR %DMSO at 10nM>  (44) 


>  <HCVsc %DMSO>  (44) 


>  <HCVpp %DMSO GT1a>  (44) 


>  <HCVpp %DMSO GT1b>  (44) 


>  <MLVpp %DMSO>  (44) 


>  <VSV-Gpp %DMSO>  (44) 


>  <Replicon %DMSO GT2a>  (44) 


>  <Human microsomal t1/2 (min)>  (44) 


>  <Mouse microsomal t1/2 (min)>  (44) 


>  <Rat microsomal t1/2 (min)>  (44) 


>  <Permeability (10-6 cm/s)>  (44) 


>  <Solubility (?g/mL)>  (44) 


$$$$
33
     RDKit          2D

 21 23  0  0  0  0  0  0  0  0999 V2000
    0.1728    3.9044    0.0000 Cl  0  0  0  0  0  0  0  0  0  0  0  0
    0.1708    2.9044    0.0000 C   0  0  0  0  0  0  0  0  0  0  0  0
    1.0358    2.4026    0.0000 C   0  0  0  0  0  0  0  0  0  0  0  0
    1.0338    1.4028    0.0000 C   0  0  0  0  0  0  0  0  0  0  0  0
    0.1668    0.9044    0.0000 C   0  0  0  0  0  0  0  0  0  0  0  0
   -0.6982    1.4062    0.0000 C   0  0  0  0  0  0  0  0  0  0  0  0
   -0.6962    2.4062    0.0000 C   0  0  0  0  0  0  0  0  0  0  0  0
    0.1648   -0.0956    0.0000 C   0  0  0  0  0  0  0  0  0  0  0  0
    1.0298   -0.5972    0.0000 N   0  0  0  0  0  0  0  0  0  0  0  0
    1.0278   -1.5972    0.0000 C   0  0  0  0  0  0  0  0  0  0  0  0
    1.8928   -2.0990    0.0000 C   0  0  0  0  0  0  0  0  0  0  0  0
    2.7598   -1.6006    0.0000 O   0  0  0  0  0  0  0  0  0  0  0  0
    2.7618   -0.6006    0.0000 C   0  0  0  0  0  0  0  0  0  0  0  0
    1.8968   -0.0990    0.0000 C   0  0  0  0  0  0  0  0  0  0  0  0
   -0.7022   -0.5938    0.0000 C   0  0  0  0  0  0  0  0  0  0  0  0
   -1.5672   -0.0920    0.0000 C   0  0  0  0  0  0  0  0  0  0  0  0
   -2.4342   -0.5904    0.0000 C   0  0  0  0  0  0  0  0  0  0  0  0
   -2.4362   -1.5904    0.0000 C   0  0  0  0  0  0  0  0  0  0  0  0
   -3.3034   -2.0886    0.0000 Cl  0  0  0  0  0  0  0  0  0  0  0  0
   -1.5712   -2.0920    0.0000 C   0  0  0  0  0  0  0  0  0  0  0  0
   -0.7042   -1.5938    0.0000 C   0  0  0  0  0  0  0  0  0  0  0  0
  1  2  1  0
  2  3  2  0
  3  4  1  0
  4  5  2  0
  5  6  1  0
  6  7  2  0
  5  8  1  0
  8  9  1  0
  9 10  1  0
 10 11  1  0
 11 12  1  0
 12 13  1  0
 13 14  1  0
  8 15  1  0
 15 16  2  0
 16 17  1  0
 17 18  2  0
 18 19  1  0
 18 20  1  0
 20 21  2  0
  7  2  1  0
 14  9  1  0
 21 15  1  0
M  END
>  <HCV EC50 (uM)>  (45) 
29.7 +/- 0.1

>  <Huh 7.5.1 CC50 (uM)>  (45) 
62.1 +/- 2.8

>  <Selectivity Index>  (45) 
2

>  <HepG2 CC50 (uM)>  (45) 


>  <Primary human hepatocyte CC50 (uM)>  (45) 


>  <Selectivity index>  (45) 


>  <H1HR %DMSO at 10nM>  (45) 


>  <HCVsc %DMSO>  (45) 


>  <HCVpp %DMSO GT1a>  (45) 


>  <HCVpp %DMSO GT1b>  (45) 


>  <MLVpp %DMSO>  (45) 


>  <VSV-Gpp %DMSO>  (45) 


>  <Replicon %DMSO GT2a>  (45) 


>  <Human microsomal t1/2 (min)>  (45) 


>  <Mouse microsomal t1/2 (min)>  (45) 


>  <Rat microsomal t1/2 (min)>  (45) 


>  <Permeability (10-6 cm/s)>  (45) 


>  <Solubility (?g/mL)>  (45) 


$$$$
34
     RDKit          2D

 27 29  0  0  0  0  0  0  0  0999 V2000
   -6.6704   -1.1904    0.0000 O   0  0  0  0  0  0  0  0  0  0  0  0
   -5.8040   -1.6898    0.0000 C   0  0  0  0  0  0  0  0  0  0  0  0
   -4.9384   -1.1892    0.0000 C   0  0  0  0  0  0  0  0  0  0  0  0
   -4.0720   -1.6884    0.0000 O   0  0  0  0  0  0  0  0  0  0  0  0
   -3.2064   -1.1878    0.0000 C   0  0  0  0  0  0  0  0  0  0  0  0
   -2.3400   -1.6870    0.0000 C   0  0  0  0  0  0  0  0  0  0  0  0
   -1.4746   -1.1864    0.0000 N   0  0  0  0  0  0  0  0  0  0  0  0
   -1.4754   -0.1864    0.0000 C   0  0  0  0  0  0  0  0  0  0  0  0
   -0.6096    0.3142    0.0000 C   0  0  0  0  0  0  0  0  0  0  0  0
    0.2568   -0.1850    0.0000 N   0  0  0  0  0  0  0  0  0  0  0  0
    0.2576   -1.1850    0.0000 C   0  0  0  0  0  0  0  0  0  0  0  0
   -0.6080   -1.6856    0.0000 C   0  0  0  0  0  0  0  0  0  0  0  0
    1.1224    0.3158    0.0000 C   0  0  0  0  0  0  0  0  0  0  0  0
    1.9886   -0.1836    0.0000 C   0  0  0  0  0  0  0  0  0  0  0  0
    1.9894   -1.1836    0.0000 C   0  0  0  0  0  0  0  0  0  0  0  0
    2.8560   -1.6828    0.0000 C   0  0  0  0  0  0  0  0  0  0  0  0
    3.7216   -1.1822    0.0000 C   0  0  0  0  0  0  0  0  0  0  0  0
    4.5880   -1.6816    0.0000 Cl  0  0  0  0  0  0  0  0  0  0  0  0
    3.7208   -0.1822    0.0000 C   0  0  0  0  0  0  0  0  0  0  0  0
    2.8544    0.3170    0.0000 C   0  0  0  0  0  0  0  0  0  0  0  0
    1.1216    1.3158    0.0000 C   0  0  0  0  0  0  0  0  0  0  0  0
    1.9872    1.8164    0.0000 C   0  0  0  0  0  0  0  0  0  0  0  0
    1.9864    2.8164    0.0000 C   0  0  0  0  0  0  0  0  0  0  0  0
    1.1200    3.3156    0.0000 C   0  0  0  0  0  0  0  0  0  0  0  0
    1.1192    4.3158    0.0000 Cl  0  0  0  0  0  0  0  0  0  0  0  0
    0.2544    2.8150    0.0000 C   0  0  0  0  0  0  0  0  0  0  0  0
    0.2552    1.8150    0.0000 C   0  0  0  0  0  0  0  0  0  0  0  0
  1  2  1  0
  2  3  1  0
  3  4  1  0
  4  5  1  0
  5  6  1  0
  6  7  1  0
  7  8  1  0
  8  9  1  0
  9 10  1  0
 10 11  1  0
 11 12  1  0
 10 13  1  0
 13 14  1  0
 14 15  2  0
 15 16  1  0
 16 17  2  0
 17 18  1  0
 17 19  1  0
 19 20  2  0
 13 21  1  0
 21 22  2  0
 22 23  1  0
 23 24  2  0
 24 25  1  0
 24 26  1  0
 26 27  2  0
 12  7  1  0
 20 14  1  0
 27 21  1  0
M  END
>  <HCV EC50 (uM)>  (46) 
0.012 +/- 0.003

>  <Huh 7.5.1 CC50 (uM)>  (46) 
19.7 +/- 2.4

>  <Selectivity Index>  (46) 
1990

>  <HepG2 CC50 (uM)>  (46) 
19.5

>  <Primary human hepatocyte CC50 (uM)>  (46) 
> 31.6

>  <Selectivity index>  (46) 
1515

>  <H1HR %DMSO at 10nM>  (46) 
23.7

>  <HCVsc %DMSO>  (46) 
1.8

>  <HCVpp %DMSO GT1a>  (46) 
71.7

>  <HCVpp %DMSO GT1b>  (46) 
80.8

>  <MLVpp %DMSO>  (46) 
108

>  <VSV-Gpp %DMSO>  (46) 
109

>  <Replicon %DMSO GT2a>  (46) 
98.8

>  <Human microsomal t1/2 (min)>  (46) 
>30

>  <Mouse microsomal t1/2 (min)>  (46) 
10

>  <Rat microsomal t1/2 (min)>  (46) 
13.7

>  <Permeability (10-6 cm/s)>  (46) 
NT

>  <Solubility (?g/mL)>  (46) 
44.5

$$$$
35
     RDKit          2D

 36 38  0  0  0  0  0  0  0  0999 V2000
  -11.7161   -1.3100    0.0000 N   0  0  0  0  0  0  0  0  0  0  0  0
  -10.8497   -0.8108    0.0000 C   0  0  0  0  0  0  0  0  0  0  0  0
   -9.9841   -1.3114    0.0000 C   0  0  0  0  0  0  0  0  0  0  0  0
   -9.1177   -0.8122    0.0000 O   0  0  0  0  0  0  0  0  0  0  0  0
   -8.2521   -1.3128    0.0000 C   0  0  0  0  0  0  0  0  0  0  0  0
   -7.3857   -0.8136    0.0000 C   0  0  0  0  0  0  0  0  0  0  0  0
   -6.5201   -1.3142    0.0000 O   0  0  0  0  0  0  0  0  0  0  0  0
   -5.6537   -0.8148    0.0000 C   0  0  0  0  0  0  0  0  0  0  0  0
   -4.7881   -1.3156    0.0000 C   0  0  0  0  0  0  0  0  0  0  0  0
   -3.9217   -0.8162    0.0000 O   0  0  0  0  0  0  0  0  0  0  0  0
   -3.0561   -1.3170    0.0000 C   0  0  0  0  0  0  0  0  0  0  0  0
   -2.1897   -0.8176    0.0000 C   0  0  0  0  0  0  0  0  0  0  0  0
   -1.3241   -1.3184    0.0000 O   0  0  0  0  0  0  0  0  0  0  0  0
   -0.4577   -0.8190    0.0000 C   0  0  0  0  0  0  0  0  0  0  0  0
    0.4079   -1.3198    0.0000 C   0  0  0  0  0  0  0  0  0  0  0  0
    1.2743   -0.8204    0.0000 N   0  0  0  0  0  0  0  0  0  0  0  0
    1.2751    0.1796    0.0000 C   0  0  0  0  0  0  0  0  0  0  0  0
    2.1415    0.6788    0.0000 C   0  0  0  0  0  0  0  0  0  0  0  0
    3.0073    0.1782    0.0000 N   0  0  0  0  0  0  0  0  0  0  0  0
    3.0065   -0.8218    0.0000 C   0  0  0  0  0  0  0  0  0  0  0  0
    2.1399   -1.3210    0.0000 C   0  0  0  0  0  0  0  0  0  0  0  0
    3.8735    0.6776    0.0000 C   0  0  0  0  0  0  0  0  0  0  0  0
    4.7391    0.1768    0.0000 C   0  0  0  0  0  0  0  0  0  0  0  0
    4.7383   -0.8232    0.0000 C   0  0  0  0  0  0  0  0  0  0  0  0
    5.6039   -1.3238    0.0000 C   0  0  0  0  0  0  0  0  0  0  0  0
    6.4705   -0.8246    0.0000 C   0  0  0  0  0  0  0  0  0  0  0  0
    7.3359   -1.3252    0.0000 Cl  0  0  0  0  0  0  0  0  0  0  0  0
    6.4713    0.1754    0.0000 C   0  0  0  0  0  0  0  0  0  0  0  0
    5.6055    0.6760    0.0000 C   0  0  0  0  0  0  0  0  0  0  0  0
    3.8743    1.6776    0.0000 C   0  0  0  0  0  0  0  0  0  0  0  0
    4.7407    2.1768    0.0000 C   0  0  0  0  0  0  0  0  0  0  0  0
    4.7415    3.1768    0.0000 C   0  0  0  0  0  0  0  0  0  0  0  0
    3.8759    3.6774    0.0000 C   0  0  0  0  0  0  0  0  0  0  0  0
    3.8767    4.6776    0.0000 Cl  0  0  0  0  0  0  0  0  0  0  0  0
    3.0095    3.1782    0.0000 C   0  0  0  0  0  0  0  0  0  0  0  0
    3.0087    2.1782    0.0000 C   0  0  0  0  0  0  0  0  0  0  0  0
  1  2  1  0
  2  3  1  0
  3  4  1  0
  4  5  1  0
  5  6  1  0
  6  7  1  0
  7  8  1  0
  8  9  1  0
  9 10  1  0
 10 11  1  0
 11 12  1  0
 12 13  1  0
 13 14  1  0
 14 15  1  0
 15 16  1  0
 16 17  1  0
 17 18  1  0
 18 19  1  0
 19 20  1  0
 20 21  1  0
 19 22  1  0
 22 23  1  0
 23 24  2  0
 24 25  1  0
 25 26  2  0
 26 27  1  0
 26 28  1  0
 28 29  2  0
 22 30  1  0
 30 31  2  0
 31 32  1  0
 32 33  2  0
 33 34  1  0
 33 35  1  0
 35 36  2  0
 21 16  1  0
 29 23  1  0
 36 30  1  0
M  END
>  <HCV EC50 (uM)>  (47) 
0.014 +/- 0.001

>  <Huh 7.5.1 CC50 (uM)>  (47) 
4.43 +/- 0.12

>  <Selectivity Index>  (47) 
316

>  <HepG2 CC50 (uM)>  (47) 


>  <Primary human hepatocyte CC50 (uM)>  (47) 


>  <Selectivity index>  (47) 


>  <H1HR %DMSO at 10nM>  (47) 


>  <HCVsc %DMSO>  (47) 


>  <HCVpp %DMSO GT1a>  (47) 


>  <HCVpp %DMSO GT1b>  (47) 


>  <MLVpp %DMSO>  (47) 


>  <VSV-Gpp %DMSO>  (47) 


>  <Replicon %DMSO GT2a>  (47) 


>  <Human microsomal t1/2 (min)>  (47) 


>  <Mouse microsomal t1/2 (min)>  (47) 


>  <Rat microsomal t1/2 (min)>  (47) 


>  <Permeability (10-6 cm/s)>  (47) 


>  <Solubility (?g/mL)>  (47) 


$$$$
Rac-36
     RDKit          2D

 20 22  0  0  0  0  0  0  0  0999 V2000
    0.0076    3.8000    0.0000 Br  0  0  0  0  0  0  0  0  0  0  0  0
    0.0056    2.8000    0.0000 C   0  0  0  0  0  0  0  0  0  0  0  0
    0.8706    2.2982    0.0000 C   0  0  0  0  0  0  0  0  0  0  0  0
    0.8686    1.2982    0.0000 C   0  0  0  0  0  0  0  0  0  0  0  0
    0.0016    0.8000    0.0000 C   0  0  0  0  0  0  0  0  0  0  0  0
   -0.8634    1.3016    0.0000 C   0  0  0  0  0  0  0  0  0  0  0  0
   -0.8614    2.3016    0.0000 C   0  0  0  0  0  0  0  0  0  0  0  0
   -0.0004   -0.2000    0.0000 C   0  0  0  0  0  0  0  0  0  0  0  0
    0.8646   -0.7018    0.0000 N   0  0  0  0  0  0  0  0  0  0  0  0
    0.8626   -1.7016    0.0000 C   0  0  0  0  0  0  0  0  0  0  0  0
    1.7276   -2.2034    0.0000 C   0  0  0  0  0  0  0  0  0  0  0  0
    2.5946   -1.7052    0.0000 N   0  0  0  0  0  0  0  0  0  0  0  0
    2.5966   -0.7052    0.0000 C   0  0  0  0  0  0  0  0  0  0  0  0
    1.7316   -0.2034    0.0000 C   0  0  0  0  0  0  0  0  0  0  0  0
   -0.8674   -0.6982    0.0000 C   0  0  0  0  0  0  0  0  0  0  0  0
   -1.7324   -0.1966    0.0000 C   0  0  0  0  0  0  0  0  0  0  0  0
   -2.5994   -0.6948    0.0000 C   0  0  0  0  0  0  0  0  0  0  0  0
   -2.6014   -1.6948    0.0000 C   0  0  0  0  0  0  0  0  0  0  0  0
   -1.7364   -2.1964    0.0000 C   0  0  0  0  0  0  0  0  0  0  0  0
   -0.8694   -1.6982    0.0000 C   0  0  0  0  0  0  0  0  0  0  0  0
  1  2  1  0
  2  3  2  0
  3  4  1  0
  4  5  2  0
  5  6  1  0
  6  7  2  0
  5  8  1  0
  8  9  1  0
  9 10  1  0
 10 11  1  0
 11 12  1  0
 12 13  1  0
 13 14  1  0
  8 15  1  0
 15 16  2  0
 16 17  1  0
 17 18  2  0
 18 19  1  0
 19 20  2  0
  7  2  1  0
 14  9  1  0
 20 15  1  0
M  END
>  <HCV EC50 (uM)>  (48) 
0.063 +/- 0.014

>  <Huh 7.5.1 CC50 (uM)>  (48) 
7.93 +/- 0.83

>  <Selectivity Index>  (48) 
126

>  <HepG2 CC50 (uM)>  (48) 


>  <Primary human hepatocyte CC50 (uM)>  (48) 


>  <Selectivity index>  (48) 


>  <H1HR %DMSO at 10nM>  (48) 


>  <HCVsc %DMSO>  (48) 


>  <HCVpp %DMSO GT1a>  (48) 


>  <HCVpp %DMSO GT1b>  (48) 


>  <MLVpp %DMSO>  (48) 


>  <VSV-Gpp %DMSO>  (48) 


>  <Replicon %DMSO GT2a>  (48) 


>  <Human microsomal t1/2 (min)>  (48) 


>  <Mouse microsomal t1/2 (min)>  (48) 


>  <Rat microsomal t1/2 (min)>  (48) 


>  <Permeability (10-6 cm/s)>  (48) 


>  <Solubility (?g/mL)>  (48) 


$$$$
Rac-37
     RDKit          2D

 21 23  0  0  0  0  0  0  0  0999 V2000
   -3.2949   -2.1018    0.0000 Cl  0  0  0  0  0  0  0  0  0  0  0  0
   -2.4299   -1.6000    0.0000 C   0  0  0  0  0  0  0  0  0  0  0  0
   -1.5629   -2.0984    0.0000 C   0  0  0  0  0  0  0  0  0  0  0  0
   -0.6979   -1.5966    0.0000 C   0  0  0  0  0  0  0  0  0  0  0  0
   -0.6999   -0.5966    0.0000 C   0  0  0  0  0  0  0  0  0  0  0  0
   -1.5669   -0.0984    0.0000 C   0  0  0  0  0  0  0  0  0  0  0  0
   -2.4319   -0.6000    0.0000 C   0  0  0  0  0  0  0  0  0  0  0  0
    0.1651   -0.0950    0.0000 C   0  0  0  0  0  0  0  0  0  0  0  0
    1.0321   -0.5932    0.0000 N   0  0  0  0  0  0  0  0  0  0  0  0
    1.8971   -0.0914    0.0000 C   0  0  0  0  0  0  0  0  0  0  0  0
    2.7641   -0.5898    0.0000 C   0  0  0  0  0  0  0  0  0  0  0  0
    2.7663   -1.5896    0.0000 N   0  0  0  0  0  0  0  0  0  0  0  0
    1.9011   -2.0914    0.0000 C   0  0  0  0  0  0  0  0  0  0  0  0
    1.0341   -1.5932    0.0000 C   0  0  0  0  0  0  0  0  0  0  0  0
    0.1631    0.9050    0.0000 C   0  0  0  0  0  0  0  0  0  0  0  0
   -0.7039    1.4034    0.0000 C   0  0  0  0  0  0  0  0  0  0  0  0
   -0.7059    2.4034    0.0000 C   0  0  0  0  0  0  0  0  0  0  0  0
    0.1591    2.9050    0.0000 C   0  0  0  0  0  0  0  0  0  0  0  0
    0.1571    3.9050    0.0000 Br  0  0  0  0  0  0  0  0  0  0  0  0
    1.0261    2.4068    0.0000 C   0  0  0  0  0  0  0  0  0  0  0  0
    1.0281    1.4068    0.0000 C   0  0  0  0  0  0  0  0  0  0  0  0
  1  2  1  0
  2  3  2  0
  3  4  1  0
  4  5  2  0
  5  6  1  0
  6  7  2  0
  5  8  1  0
  8  9  1  0
  9 10  1  0
 10 11  1  0
 11 12  1  0
 12 13  1  0
 13 14  1  0
  8 15  1  0
 15 16  2  0
 16 17  1  0
 17 18  2  0
 18 19  1  0
 18 20  1  0
 20 21  2  0
  7  2  1  0
 14  9  1  0
 21 15  1  0
M  END
>  <HCV EC50 (uM)>  (49) 
0.010 +/- 0.004

>  <Huh 7.5.1 CC50 (uM)>  (49) 
2.26 +/- 0.29

>  <Selectivity Index>  (49) 
226

>  <HepG2 CC50 (uM)>  (49) 


>  <Primary human hepatocyte CC50 (uM)>  (49) 


>  <Selectivity index>  (49) 


>  <H1HR %DMSO at 10nM>  (49) 


>  <HCVsc %DMSO>  (49) 


>  <HCVpp %DMSO GT1a>  (49) 


>  <HCVpp %DMSO GT1b>  (49) 


>  <MLVpp %DMSO>  (49) 


>  <VSV-Gpp %DMSO>  (49) 


>  <Replicon %DMSO GT2a>  (49) 


>  <Human microsomal t1/2 (min)>  (49) 


>  <Mouse microsomal t1/2 (min)>  (49) 


>  <Rat microsomal t1/2 (min)>  (49) 


>  <Permeability (10-6 cm/s)>  (49) 


>  <Solubility (?g/mL)>  (49) 


$$$$
Rac-38
     RDKit          2D

 22 24  0  0  0  0  0  0  0  0999 V2000
   -4.1322   -1.2534    0.0000 C   0  0  0  0  0  0  0  0  0  0  0  0
   -3.2658   -1.7526    0.0000 C   0  0  0  0  0  0  0  0  0  0  0  0
   -2.4002   -1.2520    0.0000 N   0  0  0  0  0  0  0  0  0  0  0  0
   -2.4010   -0.2520    0.0000 C   0  0  0  0  0  0  0  0  0  0  0  0
   -1.5354    0.2488    0.0000 C   0  0  0  0  0  0  0  0  0  0  0  0
   -0.6690   -0.2506    0.0000 N   0  0  0  0  0  0  0  0  0  0  0  0
   -0.6682   -1.2506    0.0000 C   0  0  0  0  0  0  0  0  0  0  0  0
   -1.5338   -1.7512    0.0000 C   0  0  0  0  0  0  0  0  0  0  0  0
    0.1966    0.2502    0.0000 C   0  0  0  0  0  0  0  0  0  0  0  0
    0.1958    1.2502    0.0000 C   0  0  0  0  0  0  0  0  0  0  0  0
    1.0614    1.7508    0.0000 C   0  0  0  0  0  0  0  0  0  0  0  0
    1.0606    2.7508    0.0000 C   0  0  0  0  0  0  0  0  0  0  0  0
    0.1942    3.2502    0.0000 C   0  0  0  0  0  0  0  0  0  0  0  0
   -0.6714    2.7494    0.0000 C   0  0  0  0  0  0  0  0  0  0  0  0
   -0.6706    1.7494    0.0000 C   0  0  0  0  0  0  0  0  0  0  0  0
    1.0630   -0.2492    0.0000 C   0  0  0  0  0  0  0  0  0  0  0  0
    1.0638   -1.2492    0.0000 C   0  0  0  0  0  0  0  0  0  0  0  0
    1.9302   -1.7484    0.0000 C   0  0  0  0  0  0  0  0  0  0  0  0
    2.7958   -1.2478    0.0000 C   0  0  0  0  0  0  0  0  0  0  0  0
    3.6622   -1.7472    0.0000 Br  0  0  0  0  0  0  0  0  0  0  0  0
    2.7950   -0.2478    0.0000 C   0  0  0  0  0  0  0  0  0  0  0  0
    1.9286    0.2516    0.0000 C   0  0  0  0  0  0  0  0  0  0  0  0
  1  2  1  0
  2  3  1  0
  3  4  1  0
  4  5  1  0
  5  6  1  0
  6  7  1  0
  7  8  1  0
  6  9  1  0
  9 10  1  0
 10 11  2  0
 11 12  1  0
 12 13  2  0
 13 14  1  0
 14 15  2  0
  9 16  1  0
 16 17  2  0
 17 18  1  0
 18 19  2  0
 19 20  1  0
 19 21  1  0
 21 22  2  0
  8  3  1  0
 15 10  1  0
 22 16  1  0
M  END
>  <HCV EC50 (uM)>  (50) 
0.0070 +/- 0.0004

>  <Huh 7.5.1 CC50 (uM)>  (50) 
35.2 +/- 1.4

>  <Selectivity Index>  (50) 
5029

>  <HepG2 CC50 (uM)>  (50) 


>  <Primary human hepatocyte CC50 (uM)>  (50) 


>  <Selectivity index>  (50) 


>  <H1HR %DMSO at 10nM>  (50) 


>  <HCVsc %DMSO>  (50) 


>  <HCVpp %DMSO GT1a>  (50) 


>  <HCVpp %DMSO GT1b>  (50) 


>  <MLVpp %DMSO>  (50) 


>  <VSV-Gpp %DMSO>  (50) 


>  <Replicon %DMSO GT2a>  (50) 


>  <Human microsomal t1/2 (min)>  (50) 


>  <Mouse microsomal t1/2 (min)>  (50) 


>  <Rat microsomal t1/2 (min)>  (50) 


>  <Permeability (10-6 cm/s)>  (50) 


>  <Solubility (?g/mL)>  (50) 


$$$$
Rac-39
     RDKit          2D

 23 25  0  0  0  0  0  0  0  0999 V2000
    3.3193   -2.8629    0.0000 C   0  0  0  0  0  0  0  0  0  0  0  0
    3.3173   -1.8629    0.0000 C   0  0  0  0  0  0  0  0  0  0  0  0
    2.4503   -1.3647    0.0000 N   0  0  0  0  0  0  0  0  0  0  0  0
    2.4483   -0.3647    0.0000 C   0  0  0  0  0  0  0  0  0  0  0  0
    1.5813    0.1335    0.0000 C   0  0  0  0  0  0  0  0  0  0  0  0
    0.7161   -0.3681    0.0000 N   0  0  0  0  0  0  0  0  0  0  0  0
    0.7183   -1.3681    0.0000 C   0  0  0  0  0  0  0  0  0  0  0  0
    1.5853   -1.8665    0.0000 C   0  0  0  0  0  0  0  0  0  0  0  0
   -0.1509    0.1301    0.0000 C   0  0  0  0  0  0  0  0  0  0  0  0
   -1.0159   -0.3717    0.0000 C   0  0  0  0  0  0  0  0  0  0  0  0
   -1.0139   -1.3717    0.0000 C   0  0  0  0  0  0  0  0  0  0  0  0
   -1.8789   -1.8733    0.0000 C   0  0  0  0  0  0  0  0  0  0  0  0
   -2.7459   -1.3751    0.0000 C   0  0  0  0  0  0  0  0  0  0  0  0
   -3.6109   -1.8767    0.0000 Cl  0  0  0  0  0  0  0  0  0  0  0  0
   -2.7479   -0.3751    0.0000 C   0  0  0  0  0  0  0  0  0  0  0  0
   -1.8829    0.1267    0.0000 C   0  0  0  0  0  0  0  0  0  0  0  0
   -0.1529    1.1301    0.0000 C   0  0  0  0  0  0  0  0  0  0  0  0
   -1.0199    1.6283    0.0000 C   0  0  0  0  0  0  0  0  0  0  0  0
   -1.0219    2.6283    0.0000 C   0  0  0  0  0  0  0  0  0  0  0  0
   -0.1569    3.1301    0.0000 C   0  0  0  0  0  0  0  0  0  0  0  0
   -0.1589    4.1299    0.0000 Br  0  0  0  0  0  0  0  0  0  0  0  0
    0.7101    2.6317    0.0000 C   0  0  0  0  0  0  0  0  0  0  0  0
    0.7121    1.6317    0.0000 C   0  0  0  0  0  0  0  0  0  0  0  0
  1  2  1  0
  2  3  1  0
  3  4  1  0
  4  5  1  0
  5  6  1  0
  6  7  1  0
  7  8  1  0
  6  9  1  0
  9 10  1  0
 10 11  2  0
 11 12  1  0
 12 13  2  0
 13 14  1  0
 13 15  1  0
 15 16  2  0
  9 17  1  0
 17 18  2  0
 18 19  1  0
 19 20  2  0
 20 21  1  0
 20 22  1  0
 22 23  2  0
  8  3  1  0
 16 10  1  0
 23 17  1  0
M  END
>  <HCV EC50 (uM)>  (51) 
0.0040 +/- 0.0016

>  <Huh 7.5.1 CC50 (uM)>  (51) 
21.7 +/- 3.4

>  <Selectivity Index>  (51) 
5425

>  <HepG2 CC50 (uM)>  (51) 


>  <Primary human hepatocyte CC50 (uM)>  (51) 


>  <Selectivity index>  (51) 


>  <H1HR %DMSO at 10nM>  (51) 


>  <HCVsc %DMSO>  (51) 


>  <HCVpp %DMSO GT1a>  (51) 


>  <HCVpp %DMSO GT1b>  (51) 


>  <MLVpp %DMSO>  (51) 


>  <VSV-Gpp %DMSO>  (51) 


>  <Replicon %DMSO GT2a>  (51) 


>  <Human microsomal t1/2 (min)>  (51) 


>  <Mouse microsomal t1/2 (min)>  (51) 


>  <Rat microsomal t1/2 (min)>  (51) 


>  <Permeability (10-6 cm/s)>  (51) 


>  <Solubility (?g/mL)>  (51) 


$$$$
40
     RDKit          2D

  7  7  0  0  0  0  0  0  0  0999 V2000
   -1.4853   -0.8560    0.0000 N   0  0  0  0  0  0  0  0  0  0  0  0
   -0.6189   -0.3566    0.0000 C   0  0  0  0  0  0  0  0  0  0  0  0
   -0.6181    0.6434    0.0000 C   0  0  0  0  0  0  0  0  0  0  0  0
    0.2483    1.1426    0.0000 C   0  0  0  0  0  0  0  0  0  0  0  0
    1.1139    0.6420    0.0000 C   0  0  0  0  0  0  0  0  0  0  0  0
    1.1131   -0.3580    0.0000 C   0  0  0  0  0  0  0  0  0  0  0  0
    0.2467   -0.8574    0.0000 C   0  0  0  0  0  0  0  0  0  0  0  0
  1  2  1  0
  2  3  2  0
  3  4  1  0
  4  5  2  0
  5  6  1  0
  6  7  2  0
  7  2  1  0
M  END
>  <HCV EC50 (uM)>  (52) 


>  <Huh 7.5.1 CC50 (uM)>  (52) 


>  <Selectivity Index>  (52) 


>  <HepG2 CC50 (uM)>  (52) 


>  <Primary human hepatocyte CC50 (uM)>  (52) 


>  <Selectivity index>  (52) 


>  <H1HR %DMSO at 10nM>  (52) 


>  <HCVsc %DMSO>  (52) 


>  <HCVpp %DMSO GT1a>  (52) 


>  <HCVpp %DMSO GT1b>  (52) 


>  <MLVpp %DMSO>  (52) 


>  <VSV-Gpp %DMSO>  (52) 


>  <Replicon %DMSO GT2a>  (52) 


>  <Human microsomal t1/2 (min)>  (52) 


>  <Mouse microsomal t1/2 (min)>  (52) 


>  <Rat microsomal t1/2 (min)>  (52) 


>  <Permeability (10-6 cm/s)>  (52) 


>  <Solubility (?g/mL)>  (52) 


$$$$
41
     RDKit          2D

  8  8  0  0  0  0  0  0  0  0999 V2000
   -1.7328   -0.9986    0.0000 N   0  0  0  0  0  0  0  0  0  0  0  0
   -0.8664   -0.4994    0.0000 C   0  0  0  0  0  0  0  0  0  0  0  0
   -0.8656    0.5006    0.0000 C   0  0  0  0  0  0  0  0  0  0  0  0
    0.0008    1.0000    0.0000 C   0  0  0  0  0  0  0  0  0  0  0  0
    0.8664    0.4994    0.0000 C   0  0  0  0  0  0  0  0  0  0  0  0
    1.7328    0.9986    0.0000 Cl  0  0  0  0  0  0  0  0  0  0  0  0
    0.8656   -0.5006    0.0000 C   0  0  0  0  0  0  0  0  0  0  0  0
   -0.0008   -1.0000    0.0000 C   0  0  0  0  0  0  0  0  0  0  0  0
  1  2  1  0
  2  3  2  0
  3  4  1  0
  4  5  2  0
  5  6  1  0
  5  7  1  0
  7  8  2  0
  8  2  1  0
M  END
>  <HCV EC50 (uM)>  (53) 


>  <Huh 7.5.1 CC50 (uM)>  (53) 


>  <Selectivity Index>  (53) 


>  <HepG2 CC50 (uM)>  (53) 


>  <Primary human hepatocyte CC50 (uM)>  (53) 


>  <Selectivity index>  (53) 


>  <H1HR %DMSO at 10nM>  (53) 


>  <HCVsc %DMSO>  (53) 


>  <HCVpp %DMSO GT1a>  (53) 


>  <HCVpp %DMSO GT1b>  (53) 


>  <MLVpp %DMSO>  (53) 


>  <VSV-Gpp %DMSO>  (53) 


>  <Replicon %DMSO GT2a>  (53) 


>  <Human microsomal t1/2 (min)>  (53) 


>  <Mouse microsomal t1/2 (min)>  (53) 


>  <Rat microsomal t1/2 (min)>  (53) 


>  <Permeability (10-6 cm/s)>  (53) 


>  <Solubility (?g/mL)>  (53) 


$$$$
42
     RDKit          2D

 14 15  0  0  0  0  0  0  0  0999 V2000
   -3.2230    0.9793    0.0000 C   0  0  0  0  0  0  0  0  0  0  0  0
   -2.3538    0.4849    0.0000 N   0  0  0  0  0  0  0  0  0  0  0  0
   -1.4910    0.9905    0.0000 C   0  0  0  0  0  0  0  0  0  0  0  0
   -0.6218    0.4961    0.0000 C   0  0  0  0  0  0  0  0  0  0  0  0
   -2.3474   -0.5151    0.0000 C   0  0  0  0  0  0  0  0  0  0  0  0
   -1.4782   -1.0095    0.0000 C   0  0  0  0  0  0  0  0  0  0  0  0
   -0.6154   -0.5039    0.0000 C   0  0  0  0  0  0  0  0  0  0  0  0
    0.2538   -0.9983    0.0000 N   0  0  0  0  0  0  0  0  0  0  0  0
    1.1166   -0.4929    0.0000 C   0  0  0  0  0  0  0  0  0  0  0  0
    1.1102    0.5071    0.0000 C   0  0  0  0  0  0  0  0  0  0  0  0
    1.9730    1.0127    0.0000 C   0  0  0  0  0  0  0  0  0  0  0  0
    2.8422    0.5183    0.0000 C   0  0  0  0  0  0  0  0  0  0  0  0
    2.8486   -0.4817    0.0000 C   0  0  0  0  0  0  0  0  0  0  0  0
    1.9858   -0.9873    0.0000 C   0  0  0  0  0  0  0  0  0  0  0  0
  1  2  1  0
  2  3  1  0
  3  4  1  0
  2  5  1  0
  5  6  1  0
  6  7  1  0
  7  8  1  0
  8  9  1  0
  9 10  2  0
 10 11  1  0
 11 12  2  0
 12 13  1  0
 13 14  2  0
  7  4  1  0
 14  9  1  0
M  END
>  <HCV EC50 (uM)>  (54) 


>  <Huh 7.5.1 CC50 (uM)>  (54) 


>  <Selectivity Index>  (54) 


>  <HepG2 CC50 (uM)>  (54) 


>  <Primary human hepatocyte CC50 (uM)>  (54) 


>  <Selectivity index>  (54) 


>  <H1HR %DMSO at 10nM>  (54) 


>  <HCVsc %DMSO>  (54) 


>  <HCVpp %DMSO GT1a>  (54) 


>  <HCVpp %DMSO GT1b>  (54) 


>  <MLVpp %DMSO>  (54) 


>  <VSV-Gpp %DMSO>  (54) 


>  <Replicon %DMSO GT2a>  (54) 


>  <Human microsomal t1/2 (min)>  (54) 


>  <Mouse microsomal t1/2 (min)>  (54) 


>  <Rat microsomal t1/2 (min)>  (54) 


>  <Permeability (10-6 cm/s)>  (54) 


>  <Solubility (?g/mL)>  (54) 


$$$$
43
     RDKit          2D

 15 16  0  0  0  0  0  0  0  0999 V2000
   -3.4700   -0.9111    0.0000 Cl  0  0  0  0  0  0  0  0  0  0  0  0
   -2.6008   -0.4167    0.0000 C   0  0  0  0  0  0  0  0  0  0  0  0
   -1.7380   -0.9223    0.0000 C   0  0  0  0  0  0  0  0  0  0  0  0
   -0.8688   -0.4277    0.0000 C   0  0  0  0  0  0  0  0  0  0  0  0
   -2.5944    0.5833    0.0000 C   0  0  0  0  0  0  0  0  0  0  0  0
   -1.7252    1.0777    0.0000 C   0  0  0  0  0  0  0  0  0  0  0  0
   -0.8624    0.5721    0.0000 C   0  0  0  0  0  0  0  0  0  0  0  0
    0.0068    1.0665    0.0000 N   0  0  0  0  0  0  0  0  0  0  0  0
    0.8696    0.5611    0.0000 C   0  0  0  0  0  0  0  0  0  0  0  0
    0.8632   -0.4389    0.0000 C   0  0  0  0  0  0  0  0  0  0  0  0
    1.7260   -0.9445    0.0000 C   0  0  0  0  0  0  0  0  0  0  0  0
    2.5952   -0.4501    0.0000 N   0  0  0  0  0  0  0  0  0  0  0  0
    3.4580   -0.9555    0.0000 C   0  0  0  0  0  0  0  0  0  0  0  0
    2.6016    0.5499    0.0000 C   0  0  0  0  0  0  0  0  0  0  0  0
    1.7388    1.0555    0.0000 C   0  0  0  0  0  0  0  0  0  0  0  0
  1  2  1  0
  2  3  2  0
  3  4  1  0
  2  5  1  0
  5  6  2  0
  6  7  1  0
  7  8  1  0
  8  9  1  0
  9 10  1  0
 10 11  1  0
 11 12  1  0
 12 13  1  0
 12 14  1  0
 14 15  1  0
  7  4  2  0
 15  9  1  0
M  END
>  <HCV EC50 (uM)>  (55) 


>  <Huh 7.5.1 CC50 (uM)>  (55) 


>  <Selectivity Index>  (55) 


>  <HepG2 CC50 (uM)>  (55) 


>  <Primary human hepatocyte CC50 (uM)>  (55) 


>  <Selectivity index>  (55) 


>  <H1HR %DMSO at 10nM>  (55) 


>  <HCVsc %DMSO>  (55) 


>  <HCVpp %DMSO GT1a>  (55) 


>  <HCVpp %DMSO GT1b>  (55) 


>  <MLVpp %DMSO>  (55) 


>  <VSV-Gpp %DMSO>  (55) 


>  <Replicon %DMSO GT2a>  (55) 


>  <Human microsomal t1/2 (min)>  (55) 


>  <Mouse microsomal t1/2 (min)>  (55) 


>  <Rat microsomal t1/2 (min)>  (55) 


>  <Permeability (10-6 cm/s)>  (55) 


>  <Solubility (?g/mL)>  (55) 


$$$$
44
     RDKit          2D

 20 22  0  0  0  0  0  0  0  0999 V2000
   -3.2923   -1.8974    0.0000 C   0  0  0  0  0  0  0  0  0  0  0  0
   -2.4259   -1.3980    0.0000 N   0  0  0  0  0  0  0  0  0  0  0  0
   -1.5603   -1.8988    0.0000 C   0  0  0  0  0  0  0  0  0  0  0  0
   -0.6939   -1.3994    0.0000 C   0  0  0  0  0  0  0  0  0  0  0  0
   -0.6931   -0.3994    0.0000 C   0  0  0  0  0  0  0  0  0  0  0  0
   -1.5587    0.1012    0.0000 C   0  0  0  0  0  0  0  0  0  0  0  0
   -2.4251   -0.3980    0.0000 C   0  0  0  0  0  0  0  0  0  0  0  0
    0.1733    0.0998    0.0000 N   0  0  0  0  0  0  0  0  0  0  0  0
    1.0389   -0.4008    0.0000 C   0  0  0  0  0  0  0  0  0  0  0  0
    1.9053    0.0984    0.0000 C   0  0  0  0  0  0  0  0  0  0  0  0
    2.7709   -0.4022    0.0000 C   0  0  0  0  0  0  0  0  0  0  0  0
    2.7701   -1.4022    0.0000 C   0  0  0  0  0  0  0  0  0  0  0  0
    1.9037   -1.9016    0.0000 C   0  0  0  0  0  0  0  0  0  0  0  0
    1.0381   -1.4008    0.0000 C   0  0  0  0  0  0  0  0  0  0  0  0
    0.1741    1.0998    0.0000 C   0  0  0  0  0  0  0  0  0  0  0  0
   -0.6915    1.6006    0.0000 C   0  0  0  0  0  0  0  0  0  0  0  0
   -0.6907    2.6006    0.0000 C   0  0  0  0  0  0  0  0  0  0  0  0
    0.1757    3.0998    0.0000 C   0  0  0  0  0  0  0  0  0  0  0  0
    1.0413    2.5992    0.0000 C   0  0  0  0  0  0  0  0  0  0  0  0
    1.0405    1.5992    0.0000 C   0  0  0  0  0  0  0  0  0  0  0  0
  1  2  1  0
  2  3  1  0
  3  4  1  0
  4  5  1  0
  5  6  1  0
  6  7  1  0
  5  8  1  0
  8  9  1  0
  9 10  2  0
 10 11  1  0
 11 12  2  0
 12 13  1  0
 13 14  2  0
  8 15  1  0
 15 16  2  0
 16 17  1  0
 17 18  2  0
 18 19  1  0
 19 20  2  0
  7  2  1  0
 14  9  1  0
 20 15  1  0
M  END
>  <HCV EC50 (uM)>  (56) 
2.72 +/- 1.13

>  <Huh 7.5.1 CC50 (uM)>  (56) 
56.8 +/- 8.2

>  <Selectivity Index>  (56) 
21

>  <HepG2 CC50 (uM)>  (56) 


>  <Primary human hepatocyte CC50 (uM)>  (56) 


>  <Selectivity index>  (56) 


>  <H1HR %DMSO at 10nM>  (56) 


>  <HCVsc %DMSO>  (56) 


>  <HCVpp %DMSO GT1a>  (56) 


>  <HCVpp %DMSO GT1b>  (56) 


>  <MLVpp %DMSO>  (56) 


>  <VSV-Gpp %DMSO>  (56) 


>  <Replicon %DMSO GT2a>  (56) 


>  <Human microsomal t1/2 (min)>  (56) 


>  <Mouse microsomal t1/2 (min)>  (56) 


>  <Rat microsomal t1/2 (min)>  (56) 


>  <Permeability (10-6 cm/s)>  (56) 


>  <Solubility (?g/mL)>  (56) 


$$$$
45
     RDKit          2D

 25 27  0  0  0  0  0  0  0  0999 V2000
    4.1928   -1.6460    0.0000 C   0  0  0  0  0  0  0  0  0  0  0  0
    3.3264   -1.1466    0.0000 N   0  0  0  0  0  0  0  0  0  0  0  0
    2.4608   -1.6474    0.0000 C   0  0  0  0  0  0  0  0  0  0  0  0
    1.5944   -1.1480    0.0000 C   0  0  0  0  0  0  0  0  0  0  0  0
    1.5936   -0.1480    0.0000 C   0  0  0  0  0  0  0  0  0  0  0  0
    2.4592    0.3526    0.0000 C   0  0  0  0  0  0  0  0  0  0  0  0
    3.3256   -0.1466    0.0000 C   0  0  0  0  0  0  0  0  0  0  0  0
    0.7272    0.3512    0.0000 N   0  0  0  0  0  0  0  0  0  0  0  0
    0.7264    1.3512    0.0000 C   0  0  0  0  0  0  0  0  0  0  0  0
    1.5920    1.8520    0.0000 C   0  0  0  0  0  0  0  0  0  0  0  0
    1.5912    2.8520    0.0000 C   0  0  0  0  0  0  0  0  0  0  0  0
    0.7248    3.3512    0.0000 C   0  0  0  0  0  0  0  0  0  0  0  0
   -0.1408    2.8506    0.0000 C   0  0  0  0  0  0  0  0  0  0  0  0
   -0.1400    1.8506    0.0000 C   0  0  0  0  0  0  0  0  0  0  0  0
   -0.1384   -0.1494    0.0000 C   0  0  0  0  0  0  0  0  0  0  0  0
   -1.0048    0.3498    0.0000 C   0  0  0  0  0  0  0  0  0  0  0  0
   -1.8704   -0.1508    0.0000 C   0  0  0  0  0  0  0  0  0  0  0  0
   -1.8696   -1.1508    0.0000 C   0  0  0  0  0  0  0  0  0  0  0  0
   -2.7352   -1.6514    0.0000 O   0  0  0  0  0  0  0  0  0  0  0  0
   -3.6016   -1.1522    0.0000 C   0  0  0  0  0  0  0  0  0  0  0  0
   -3.1022   -0.2858    0.0000 C   0  0  0  0  0  0  0  0  0  0  0  0
   -4.1022   -0.2866    0.0000 C   0  0  0  0  0  0  0  0  0  0  0  0
   -4.4672   -1.6528    0.0000 C   0  0  0  0  0  0  0  0  0  0  0  0
   -1.0032   -1.6502    0.0000 C   0  0  0  0  0  0  0  0  0  0  0  0
   -0.1376   -1.1494    0.0000 C   0  0  0  0  0  0  0  0  0  0  0  0
  1  2  1  0
  2  3  1  0
  3  4  1  0
  4  5  1  0
  5  6  1  0
  6  7  1  0
  5  8  1  0
  8  9  1  0
  9 10  2  0
 10 11  1  0
 11 12  2  0
 12 13  1  0
 13 14  2  0
  8 15  1  0
 15 16  2  0
 16 17  1  0
 17 18  2  0
 18 19  1  0
 19 20  1  0
 20 21  1  0
 20 22  1  0
 20 23  1  0
 18 24  1  0
 24 25  2  0
  7  2  1  0
 14  9  1  0
 25 15  1  0
M  END
>  <HCV EC50 (uM)>  (57) 
0.354 +/- 0.097

>  <Huh 7.5.1 CC50 (uM)>  (57) 
78.7 +/- 0.6

>  <Selectivity Index>  (57) 
222

>  <HepG2 CC50 (uM)>  (57) 


>  <Primary human hepatocyte CC50 (uM)>  (57) 


>  <Selectivity index>  (57) 


>  <H1HR %DMSO at 10nM>  (57) 


>  <HCVsc %DMSO>  (57) 


>  <HCVpp %DMSO GT1a>  (57) 


>  <HCVpp %DMSO GT1b>  (57) 


>  <MLVpp %DMSO>  (57) 


>  <VSV-Gpp %DMSO>  (57) 


>  <Replicon %DMSO GT2a>  (57) 


>  <Human microsomal t1/2 (min)>  (57) 


>  <Mouse microsomal t1/2 (min)>  (57) 


>  <Rat microsomal t1/2 (min)>  (57) 


>  <Permeability (10-6 cm/s)>  (57) 


>  <Solubility (?g/mL)>  (57) 


$$$$
46
     RDKit          2D

 15 17  0  0  0  0  0  0  0  0999 V2000
    0.2391    2.0578    0.0000 O   0  0  0  0  0  0  0  0  0  0  0  0
    0.2341    1.0580    0.0000 C   0  0  0  0  0  0  0  0  0  0  0  0
    1.0403    0.4662    0.0000 C   0  0  0  0  0  0  0  0  0  0  0  0
    0.7265   -0.4834    0.0000 C   0  0  0  0  0  0  0  0  0  0  0  0
   -0.2735   -0.4784    0.0000 C   0  0  0  0  0  0  0  0  0  0  0  0
   -0.5777    0.4742    0.0000 C   0  0  0  0  0  0  0  0  0  0  0  0
   -1.5547    0.6870    0.0000 C   0  0  0  0  0  0  0  0  0  0  0  0
   -2.2275   -0.0528    0.0000 C   0  0  0  0  0  0  0  0  0  0  0  0
   -1.9233   -1.0054    0.0000 C   0  0  0  0  0  0  0  0  0  0  0  0
   -0.9461   -1.2182    0.0000 C   0  0  0  0  0  0  0  0  0  0  0  0
   -3.2047    0.1600    0.0000 Br  0  0  0  0  0  0  0  0  0  0  0  0
    1.3921   -1.2298    0.0000 C   0  0  0  0  0  0  0  0  0  0  0  0
    2.3711   -1.0268    0.0000 C   0  0  0  0  0  0  0  0  0  0  0  0
    2.6849   -0.0774    0.0000 C   0  0  0  0  0  0  0  0  0  0  0  0
    2.0195    0.6692    0.0000 C   0  0  0  0  0  0  0  0  0  0  0  0
  1  2  2  0
  2  3  1  0
  3  4  2  0
  4  5  1  0
  5  6  2  0
  6  7  1  0
  7  8  2  0
  8  9  1  0
  9 10  2  0
  8 11  1  0
  4 12  1  0
 12 13  2  0
 13 14  1  0
 14 15  2  0
  6  2  1  0
 15  3  1  0
 10  5  1  0
M  END
>  <HCV EC50 (uM)>  (58) 


>  <Huh 7.5.1 CC50 (uM)>  (58) 


>  <Selectivity Index>  (58) 


>  <HepG2 CC50 (uM)>  (58) 


>  <Primary human hepatocyte CC50 (uM)>  (58) 


>  <Selectivity index>  (58) 


>  <H1HR %DMSO at 10nM>  (58) 


>  <HCVsc %DMSO>  (58) 


>  <HCVpp %DMSO GT1a>  (58) 


>  <HCVpp %DMSO GT1b>  (58) 


>  <MLVpp %DMSO>  (58) 


>  <VSV-Gpp %DMSO>  (58) 


>  <Replicon %DMSO GT2a>  (58) 


>  <Human microsomal t1/2 (min)>  (58) 


>  <Mouse microsomal t1/2 (min)>  (58) 


>  <Rat microsomal t1/2 (min)>  (58) 


>  <Permeability (10-6 cm/s)>  (58) 


>  <Solubility (?g/mL)>  (58) 


$$$$
47
     RDKit          2D

 15 17  0  0  0  0  0  0  0  0999 V2000
    0.2391    2.0578    0.0000 Cl  0  0  0  0  0  0  0  0  0  0  0  0
    0.2341    1.0580    0.0000 C   0  0  0  0  0  0  0  0  0  0  0  0
    1.0403    0.4662    0.0000 C   0  0  0  0  0  0  0  0  0  0  0  0
    0.7265   -0.4834    0.0000 C   0  0  0  0  0  0  0  0  0  0  0  0
   -0.2735   -0.4784    0.0000 C   0  0  0  0  0  0  0  0  0  0  0  0
   -0.5777    0.4742    0.0000 C   0  0  0  0  0  0  0  0  0  0  0  0
   -1.5547    0.6870    0.0000 C   0  0  0  0  0  0  0  0  0  0  0  0
   -2.2275   -0.0528    0.0000 C   0  0  0  0  0  0  0  0  0  0  0  0
   -1.9233   -1.0054    0.0000 C   0  0  0  0  0  0  0  0  0  0  0  0
   -0.9461   -1.2182    0.0000 C   0  0  0  0  0  0  0  0  0  0  0  0
   -3.2047    0.1600    0.0000 Br  0  0  0  0  0  0  0  0  0  0  0  0
    1.3921   -1.2298    0.0000 C   0  0  0  0  0  0  0  0  0  0  0  0
    2.3711   -1.0268    0.0000 C   0  0  0  0  0  0  0  0  0  0  0  0
    2.6849   -0.0774    0.0000 C   0  0  0  0  0  0  0  0  0  0  0  0
    2.0195    0.6692    0.0000 C   0  0  0  0  0  0  0  0  0  0  0  0
  1  2  1  0
  2  3  1  0
  3  4  2  0
  4  5  1  0
  5  6  2  0
  6  7  1  0
  7  8  2  0
  8  9  1  0
  9 10  2  0
  8 11  1  0
  4 12  1  0
 12 13  2  0
 13 14  1  0
 14 15  2  0
  6  2  1  0
 15  3  1  0
 10  5  1  0
M  END
>  <HCV EC50 (uM)>  (59) 


>  <Huh 7.5.1 CC50 (uM)>  (59) 


>  <Selectivity Index>  (59) 


>  <HepG2 CC50 (uM)>  (59) 


>  <Primary human hepatocyte CC50 (uM)>  (59) 


>  <Selectivity index>  (59) 


>  <H1HR %DMSO at 10nM>  (59) 


>  <HCVsc %DMSO>  (59) 


>  <HCVpp %DMSO GT1a>  (59) 


>  <HCVpp %DMSO GT1b>  (59) 


>  <MLVpp %DMSO>  (59) 


>  <VSV-Gpp %DMSO>  (59) 


>  <Replicon %DMSO GT2a>  (59) 


>  <Human microsomal t1/2 (min)>  (59) 


>  <Mouse microsomal t1/2 (min)>  (59) 


>  <Rat microsomal t1/2 (min)>  (59) 


>  <Permeability (10-6 cm/s)>  (59) 


>  <Solubility (?g/mL)>  (59) 


$$$$
48
     RDKit          2D

 22 25  0  0  0  0  0  0  0  0999 V2000
    0.9685    4.3387    0.0000 C   0  0  0  0  0  0  0  0  0  0  0  0
    0.1043    3.8361    0.0000 C   0  0  0  0  0  0  0  0  0  0  0  0
    0.1075    2.8361    0.0000 N   0  0  0  0  0  0  0  0  0  0  0  0
    0.9751    2.3389    0.0000 C   0  0  0  0  0  0  0  0  0  0  0  0
    0.9783    1.3389    0.0000 C   0  0  0  0  0  0  0  0  0  0  0  0
    0.1139    0.8361    0.0000 N   0  0  0  0  0  0  0  0  0  0  0  0
   -0.7537    1.3333    0.0000 C   0  0  0  0  0  0  0  0  0  0  0  0
   -0.7569    2.3333    0.0000 C   0  0  0  0  0  0  0  0  0  0  0  0
    0.1173   -0.1639    0.0000 C   0  0  0  0  0  0  0  0  0  0  0  0
    0.9281   -0.7489    0.0000 C   0  0  0  0  0  0  0  0  0  0  0  0
    0.6223   -1.7011    0.0000 C   0  0  0  0  0  0  0  0  0  0  0  0
    1.2939   -2.4421    0.0000 C   0  0  0  0  0  0  0  0  0  0  0  0
    2.2713   -2.2307    0.0000 C   0  0  0  0  0  0  0  0  0  0  0  0
    2.5771   -1.2787    0.0000 C   0  0  0  0  0  0  0  0  0  0  0  0
    1.9057   -0.5379    0.0000 C   0  0  0  0  0  0  0  0  0  0  0  0
   -0.3777   -1.7043    0.0000 C   0  0  0  0  0  0  0  0  0  0  0  0
   -0.6899   -0.7543    0.0000 C   0  0  0  0  0  0  0  0  0  0  0  0
   -1.6687   -0.5497    0.0000 C   0  0  0  0  0  0  0  0  0  0  0  0
   -2.3353   -1.2949    0.0000 C   0  0  0  0  0  0  0  0  0  0  0  0
   -3.3141   -1.0903    0.0000 Br  0  0  0  0  0  0  0  0  0  0  0  0
   -2.0233   -2.2449    0.0000 C   0  0  0  0  0  0  0  0  0  0  0  0
   -1.0445   -2.4497    0.0000 C   0  0  0  0  0  0  0  0  0  0  0  0
  1  2  1  0
  2  3  1  0
  3  4  1  0
  4  5  1  0
  5  6  1  0
  6  7  1  0
  7  8  1  0
  6  9  1  0
  9 10  1  0
 10 11  1  0
 11 12  2  0
 12 13  1  0
 13 14  2  0
 14 15  1  0
 11 16  1  0
 16 17  2  0
 17 18  1  0
 18 19  2  0
 19 20  1  0
 19 21  1  0
 21 22  2  0
  8  3  1  0
 17  9  1  0
 15 10  2  0
 22 16  1  0
M  END
>  <HCV EC50 (uM)>  (60) 
1.68 +/- 0.42

>  <Huh 7.5.1 CC50 (uM)>  (60) 
53.1 +/- 1.3

>  <Selectivity Index>  (60) 
32

>  <HepG2 CC50 (uM)>  (60) 


>  <Primary human hepatocyte CC50 (uM)>  (60) 


>  <Selectivity index>  (60) 


>  <H1HR %DMSO at 10nM>  (60) 


>  <HCVsc %DMSO>  (60) 


>  <HCVpp %DMSO GT1a>  (60) 


>  <HCVpp %DMSO GT1b>  (60) 


>  <MLVpp %DMSO>  (60) 


>  <VSV-Gpp %DMSO>  (60) 


>  <Replicon %DMSO GT2a>  (60) 


>  <Human microsomal t1/2 (min)>  (60) 


>  <Mouse microsomal t1/2 (min)>  (60) 


>  <Rat microsomal t1/2 (min)>  (60) 


>  <Permeability (10-6 cm/s)>  (60) 


>  <Solubility (?g/mL)>  (60) 


$$$$
